<?xml version="1.0" encoding="UTF-8"?>

<!-- generated on 2023-01-23 01:33:41 by Eclipse SUMO duarouter Version 1.13.0
<configuration xmlns:xsi="http://www.w3.org/2001/XMLSchema-instance" xsi:noNamespaceSchemaLocation="http://sumo.dlr.de/xsd/duarouterConfiguration.xsd">

    <input>
        <net-file value="C:\Users\Matthew\Sumo\2023-01-23-01-33-37\osm.net.xml"/>
        <route-files value="C:\Users\Matthew\Sumo\2023-01-23-01-33-37\osm.bus.trips.xml"/>
    </input>

    <output>
        <output-file value="C:\Users\Matthew\Sumo\2023-01-23-01-33-37\osm.bus.trips.xml.tmp"/>
        <write-trips value="true"/>
    </output>

    <time>
        <begin value="0"/>
        <end value="3600"/>
    </time>

    <report>
        <no-warnings value="true"/>
        <ignore-errors value="true"/>
        <no-step-log value="true"/>
    </report>

</configuration>
-->

<routes xmlns:xsi="http://www.w3.org/2001/XMLSchema-instance" xsi:noNamespaceSchemaLocation="http://sumo.dlr.de/xsd/routes_file.xsd">
    <vType id="bus_bus" vClass="bus"/>
    <trip id="bus0" type="bus_bus" depart="0.00" departLane="best" from="436790415" to="1072302865#0"/>
    <trip id="bus1" type="bus_bus" depart="3.67" departLane="best" departSpeed="max" from="436799406" to="391847010"/>
    <trip id="bus2" type="bus_bus" depart="7.33" departLane="best" from="436790244" to="436790303"/>
    <trip id="bus5" type="bus_bus" depart="18.34" departLane="best" from="436790269" to="436786895"/>
    <trip id="bus7" type="bus_bus" depart="25.67" departLane="best" from="436790437" to="436790415-AddedOffRampEdge"/>
    <trip id="bus9" type="bus_bus" depart="33.00" departLane="best" from="436790407" to="437457252"/>
    <trip id="bus11" type="bus_bus" depart="40.34" departLane="best" from="436790435#0" to="436790417"/>
    <trip id="bus14" type="bus_bus" depart="51.34" departLane="best" departSpeed="max" from="436790414" to="436790278"/>
    <trip id="bus16" type="bus_bus" depart="58.67" departLane="best" departSpeed="max" from="436790260" to="437457243"/>
    <trip id="bus17" type="bus_bus" depart="62.34" departLane="best" from="436790409" to="436790423"/>
    <trip id="bus18" type="bus_bus" depart="66.01" departLane="best" from="436790435#2" to="436790429#0"/>
    <trip id="bus19" type="bus_bus" depart="69.67" departLane="best" from="436790248" to="1072302865#0"/>
    <trip id="bus20" type="bus_bus" depart="73.34" departLane="best" from="436790244" to="437457243"/>
    <trip id="bus21" type="bus_bus" depart="77.01" departLane="best" from="436799399" to="436790267#0"/>
    <trip id="bus22" type="bus_bus" depart="80.67" departLane="best" from="436790415-AddedOffRampEdge" to="436790278"/>
    <trip id="bus27" type="bus_bus" depart="99.01" departLane="best" from="436790431#0" to="436790282"/>
    <trip id="bus28" type="bus_bus" depart="102.68" departLane="best" departSpeed="max" from="-391847010" to="436790423"/>
    <trip id="bus29" type="bus_bus" depart="106.34" departLane="best" from="436790418" to="436790407"/>
    <trip id="bus30" type="bus_bus" depart="110.01" departLane="best" departSpeed="max" from="436790260" to="436790419"/>
    <trip id="bus32" type="bus_bus" depart="117.34" departLane="best" departSpeed="max" from="436790305" to="436790231#0"/>
    <trip id="bus33" type="bus_bus" depart="121.01" departLane="best" departSpeed="max" from="436790260" to="436790419"/>
    <trip id="bus34" type="bus_bus" depart="124.68" departLane="best" departSpeed="max" from="436790414" to="436786895"/>
    <trip id="bus35" type="bus_bus" depart="128.35" departLane="best" from="436790428#0" to="436790408#0"/>
    <trip id="bus36" type="bus_bus" depart="132.01" departLane="best" departSpeed="max" from="-391847010" to="436790267#0"/>
    <trip id="bus37" type="bus_bus" depart="135.68" departLane="best" departSpeed="max" from="-391847010" to="436799405"/>
    <trip id="bus38" type="bus_bus" depart="139.35" departLane="best" departSpeed="max" from="436790260" to="391847010"/>
    <trip id="bus40" type="bus_bus" depart="146.68" departLane="best" from="436790428#0" to="436786895"/>
    <trip id="bus41" type="bus_bus" depart="150.35" departLane="best" departSpeed="max" from="436790305" to="436790409"/>
    <trip id="bus44" type="bus_bus" depart="161.35" departLane="best" from="436790300#0" to="436790406"/>
    <trip id="bus46" type="bus_bus" depart="168.68" departLane="best" from="-529875454" to="436790418"/>
    <trip id="bus48" type="bus_bus" depart="176.02" departLane="best" from="436790244" to="436786895"/>
    <trip id="bus49" type="bus_bus" depart="179.68" departLane="best" from="436790425" to="436790423"/>
    <trip id="bus52" type="bus_bus" depart="190.68" departLane="best" from="436790296" to="436790267#0"/>
    <trip id="bus54" type="bus_bus" depart="198.02" departLane="best" from="436790409" to="391847010"/>
    <trip id="bus55" type="bus_bus" depart="201.69" departLane="best" from="704095590#0" to="436790435#2"/>
    <trip id="bus57" type="bus_bus" depart="209.02" departLane="best" departSpeed="max" from="436790260" to="436790430"/>
    <trip id="bus58" type="bus_bus" depart="212.69" departLane="best" from="436790409" to="436790423"/>
    <trip id="bus59" type="bus_bus" depart="216.35" departLane="best" departSpeed="max" from="436786890" to="436790267#0"/>
    <trip id="bus60" type="bus_bus" depart="220.02" departLane="best" from="436790408#0" to="436790427#0"/>
    <trip id="bus61" type="bus_bus" depart="223.69" departLane="best" from="-436790313" to="436790415"/>
    <trip id="bus62" type="bus_bus" depart="227.35" departLane="best" departSpeed="max" from="436786890" to="437457248"/>
    <trip id="bus63" type="bus_bus" depart="231.02" departLane="best" from="1072302865#0" to="436790231#0"/>
    <trip id="bus64" type="bus_bus" depart="234.69" departLane="best" from="436790250" to="436786895"/>
    <trip id="bus65" type="bus_bus" depart="238.36" departLane="best" departSpeed="max" from="436790414" to="436790417"/>
    <trip id="bus66" type="bus_bus" depart="242.02" departLane="best" from="436790296" to="436790415"/>
    <trip id="bus68" type="bus_bus" depart="249.36" departLane="best" from="436790250" to="436790278"/>
    <trip id="bus69" type="bus_bus" depart="253.02" departLane="best" from="436790417" to="436790267#0"/>
    <trip id="bus71" type="bus_bus" depart="260.36" departLane="best" departSpeed="max" from="436790260" to="436799405"/>
    <trip id="bus72" type="bus_bus" depart="264.02" departLane="best" departSpeed="max" from="436790414" to="529875454"/>
    <trip id="bus73" type="bus_bus" depart="267.69" departLane="best" from="436790415-AddedOffRampEdge" to="-436790313"/>
    <trip id="bus76" type="bus_bus" depart="278.69" departLane="best" departSpeed="max" from="436790260" to="436790416"/>
    <trip id="bus78" type="bus_bus" depart="286.03" departLane="best" departSpeed="max" from="436790305" to="436799405"/>
    <trip id="bus79" type="bus_bus" depart="289.69" departLane="best" from="436790435#2" to="391847010"/>
    <trip id="bus80" type="bus_bus" depart="293.36" departLane="best" from="436790296" to="436790267#0"/>
    <trip id="bus81" type="bus_bus" depart="297.03" departLane="best" from="-529875454" to="436799405"/>
    <trip id="bus82" type="bus_bus" depart="300.69" departLane="best" departSpeed="max" from="436799406" to="436790408#0"/>
    <trip id="bus83" type="bus_bus" depart="304.36" departLane="best" from="436790259" to="436786884"/>
    <trip id="bus84" type="bus_bus" depart="308.03" departLane="best" from="436790429#0" to="436799405"/>
    <trip id="bus85" type="bus_bus" depart="311.70" departLane="best" departSpeed="max" from="436786890" to="436799405"/>
    <trip id="bus87" type="bus_bus" depart="319.03" departLane="best" from="436790248" to="436790433#0"/>
    <trip id="bus88" type="bus_bus" depart="322.70" departLane="best" departSpeed="max" from="436790305" to="436790267#0"/>
    <trip id="bus90" type="bus_bus" depart="330.03" departLane="best" from="437457248" to="436790267#0"/>
    <trip id="bus91" type="bus_bus" depart="333.70" departLane="best" from="436790415" to="436790278"/>
    <trip id="bus92" type="bus_bus" depart="337.36" departLane="best" from="437457243" to="436786895"/>
    <trip id="bus94" type="bus_bus" depart="344.70" departLane="best" from="436790425" to="436790267#0"/>
    <trip id="bus95" type="bus_bus" depart="348.37" departLane="best" departSpeed="max" from="436790414" to="436790313"/>
    <trip id="bus96" type="bus_bus" depart="352.03" departLane="best" from="436790287" to="436790411"/>
    <trip id="bus97" type="bus_bus" depart="355.70" departLane="best" departSpeed="max" from="-391847010" to="436799405"/>
    <trip id="bus98" type="bus_bus" depart="359.37" departLane="best" from="436790407" to="436790423"/>
    <trip id="bus100" type="bus_bus" depart="366.70" departLane="best" from="436790261#0" to="436790437"/>
    <trip id="bus101" type="bus_bus" depart="370.37" departLane="best" from="436790421#0" to="436790267#0"/>
    <trip id="bus102" type="bus_bus" depart="374.03" departLane="best" from="436790261#0" to="436790279"/>
    <trip id="bus103" type="bus_bus" depart="377.70" departLane="best" from="436790290" to="436790267#0"/>
    <trip id="bus104" type="bus_bus" depart="381.37" departLane="best" from="437457243" to="436790423"/>
    <trip id="bus105" type="bus_bus" depart="385.04" departLane="best" departSpeed="max" from="436799406" to="436790417"/>
    <trip id="bus106" type="bus_bus" depart="388.70" departLane="best" departSpeed="max" from="436790260" to="436790408#0"/>
    <trip id="bus107" type="bus_bus" depart="392.37" departLane="best" departSpeed="max" from="-391847010" to="436790267#0"/>
    <trip id="bus108" type="bus_bus" depart="396.04" departLane="best" from="436790300#0" to="436790411"/>
    <trip id="bus109" type="bus_bus" depart="399.70" departLane="best" from="436790415-AddedOffRampEdge" to="436790295"/>
    <trip id="bus111" type="bus_bus" depart="407.04" departLane="best" departSpeed="max" from="436790305" to="436799405"/>
    <trip id="bus115" type="bus_bus" depart="421.71" departLane="best" from="436790243" to="1072302865#0"/>
    <trip id="bus117" type="bus_bus" depart="429.04" departLane="best" from="436790437" to="391847010"/>
    <trip id="bus120" type="bus_bus" depart="440.04" departLane="best" from="436790415-AddedOffRampEdge" to="-436790313"/>
    <trip id="bus121" type="bus_bus" depart="443.71" departLane="best" from="436790427#0" to="436790429#0"/>
    <trip id="bus124" type="bus_bus" depart="454.71" departLane="best" from="436790259" to="436790437"/>
    <trip id="bus125" type="bus_bus" depart="458.38" departLane="best" departSpeed="max" from="436790305" to="436790431#0"/>
    <trip id="bus126" type="bus_bus" depart="462.04" departLane="best" from="436790416" to="529875454"/>
    <trip id="bus127" type="bus_bus" depart="465.71" departLane="best" departSpeed="max" from="436799406" to="436790416"/>
    <trip id="bus128" type="bus_bus" depart="469.38" departLane="best" from="436790421#0" to="436790303"/>
    <trip id="bus129" type="bus_bus" depart="473.04" departLane="best" from="436790435#0" to="436790408#0"/>
    <trip id="bus131" type="bus_bus" depart="480.38" departLane="best" from="436790259" to="436790419"/>
    <trip id="bus132" type="bus_bus" depart="484.04" departLane="best" from="1072302865#0" to="436790267#0"/>
    <trip id="bus133" type="bus_bus" depart="487.71" departLane="best" from="436790408#0" to="436786895"/>
    <trip id="bus136" type="bus_bus" depart="498.71" departLane="best" from="436790296" to="436799405"/>
    <trip id="bus140" type="bus_bus" depart="513.38" departLane="best" from="436790296" to="436790427#0"/>
    <trip id="bus141" type="bus_bus" depart="517.05" departLane="best" departSpeed="max" from="436790414" to="1072302865#0"/>
    <trip id="bus142" type="bus_bus" depart="520.71" departLane="best" departSpeed="max" from="-391847010" to="436790278"/>
    <trip id="bus143" type="bus_bus" depart="524.38" departLane="best" from="436790428#0" to="436790278"/>
    <trip id="bus144" type="bus_bus" depart="528.05" departLane="best" from="436790259" to="391847010"/>
    <trip id="bus145" type="bus_bus" depart="531.72" departLane="best" departSpeed="max" from="-391847010" to="436790408#0"/>
    <trip id="bus146" type="bus_bus" depart="535.38" departLane="best" from="436790415-AddedOffRampEdge" to="436790430"/>
    <trip id="bus147" type="bus_bus" depart="539.05" departLane="best" departSpeed="max" from="436786890" to="436790421#0"/>
    <trip id="bus150" type="bus_bus" depart="550.05" departLane="best" from="436786915#0" to="436790416"/>
    <trip id="bus151" type="bus_bus" depart="553.72" departLane="best" from="436790427#0" to="436786895"/>
    <trip id="bus152" type="bus_bus" depart="557.38" departLane="best" from="437457248" to="436790278"/>
    <trip id="bus153" type="bus_bus" depart="561.05" departLane="best" from="436790421#0" to="391847010"/>
    <trip id="bus154" type="bus_bus" depart="564.72" departLane="best" from="436790437" to="436790415-AddedOffRampEdge"/>
    <trip id="bus155" type="bus_bus" depart="568.39" departLane="best" from="436790437" to="436790433#0"/>
    <trip id="bus157" type="bus_bus" depart="575.72" departLane="best" departSpeed="max" from="436790260" to="436790437"/>
    <trip id="bus158" type="bus_bus" depart="579.39" departLane="best" from="436790435#0" to="391847010"/>
    <trip id="bus159" type="bus_bus" depart="583.05" departLane="best" departSpeed="max" from="436790305" to="436790416"/>
    <trip id="bus160" type="bus_bus" depart="586.72" departLane="best" from="436790437" to="436790231#0"/>
    <trip id="bus161" type="bus_bus" depart="590.39" departLane="best" from="436790244" to="436790431#0"/>
    <trip id="bus162" type="bus_bus" depart="594.05" departLane="best" from="436790419" to="436790267#0"/>
    <trip id="bus164" type="bus_bus" depart="601.39" departLane="best" from="1072302865#0" to="436790423"/>
    <trip id="bus165" type="bus_bus" depart="605.06" departLane="best" departSpeed="max" from="436790305" to="436790427#0"/>
    <trip id="bus166" type="bus_bus" depart="608.72" departLane="best" from="436790418" to="436790419"/>
    <trip id="bus167" type="bus_bus" depart="612.39" departLane="best" departSpeed="max" from="436790305" to="436790431#0"/>
    <trip id="bus169" type="bus_bus" depart="619.72" departLane="best" from="436790418" to="436790267#0"/>
    <trip id="bus172" type="bus_bus" depart="630.72" departLane="best" from="436790259" to="436786895"/>
    <trip id="bus173" type="bus_bus" depart="634.39" departLane="best" from="436790234" to="436786895"/>
    <trip id="bus175" type="bus_bus" depart="641.73" departLane="best" departSpeed="max" from="436790305" to="436790423"/>
    <trip id="bus176" type="bus_bus" depart="645.39" departLane="best" departSpeed="max" from="436790260" to="436786884"/>
    <trip id="bus182" type="bus_bus" depart="667.39" departLane="best" from="-529875454" to="436790418"/>
    <trip id="bus183" type="bus_bus" depart="671.06" departLane="best" from="436790410" to="436790267#0"/>
    <trip id="bus184" type="bus_bus" depart="674.73" departLane="best" from="704095590#0" to="436786895"/>
    <trip id="bus185" type="bus_bus" depart="678.40" departLane="best" from="436790428#0" to="436790416"/>
    <trip id="bus189" type="bus_bus" depart="693.06" departLane="best" from="704095590#0" to="436790267#0"/>
    <trip id="bus190" type="bus_bus" depart="696.73" departLane="best" departSpeed="max" from="436790414" to="436790416"/>
    <trip id="bus191" type="bus_bus" depart="700.40" departLane="best" from="436790416" to="436786895"/>
    <trip id="bus192" type="bus_bus" depart="704.06" departLane="best" from="436790418" to="436799405"/>
    <trip id="bus193" type="bus_bus" depart="707.73" departLane="best" from="436790416" to="436799405"/>
    <trip id="bus194" type="bus_bus" depart="711.40" departLane="best" from="436790296" to="436790408#0"/>
    <trip id="bus195" type="bus_bus" depart="715.07" departLane="best" from="436790435#0" to="391847010"/>
    <trip id="bus196" type="bus_bus" depart="718.73" departLane="best" from="436786915#0" to="436790267#0"/>
    <trip id="bus197" type="bus_bus" depart="722.40" departLane="best" from="436790427#0" to="436790410"/>
    <trip id="bus198" type="bus_bus" depart="726.07" departLane="best" departSpeed="max" from="436790260" to="436786895"/>
    <trip id="bus199" type="bus_bus" depart="729.73" departLane="best" from="436790418" to="436790423"/>
    <trip id="bus200" type="bus_bus" depart="733.40" departLane="best" from="437457243" to="436790303"/>
    <trip id="bus201" type="bus_bus" depart="737.07" departLane="best" departSpeed="max" from="436790305" to="391847010"/>
    <trip id="bus202" type="bus_bus" depart="740.73" departLane="best" from="437457246" to="704095590#0"/>
    <trip id="bus204" type="bus_bus" depart="748.07" departLane="best" departSpeed="max" from="-391847010" to="436790427#0"/>
    <trip id="bus205" type="bus_bus" depart="751.74" departLane="best" departSpeed="max" from="436790414" to="436790418"/>
    <trip id="bus206" type="bus_bus" depart="755.40" departLane="best" departSpeed="max" from="436790305" to="391847010"/>
    <trip id="bus208" type="bus_bus" depart="762.74" departLane="best" from="436790416" to="436799398"/>
    <trip id="bus210" type="bus_bus" depart="770.07" departLane="best" departSpeed="max" from="436790305" to="436790267#0"/>
    <trip id="bus211" type="bus_bus" depart="773.74" departLane="best" from="436790408#0" to="436790279"/>
    <trip id="bus212" type="bus_bus" depart="777.40" departLane="best" from="436790234" to="436790278"/>
    <trip id="bus213" type="bus_bus" depart="781.07" departLane="best" from="436790427#0" to="436790417"/>
    <trip id="bus214" type="bus_bus" depart="784.74" departLane="best" from="436790408#0" to="436799405"/>
    <trip id="bus215" type="bus_bus" depart="788.41" departLane="best" from="436790300#0" to="436790423"/>
    <trip id="bus216" type="bus_bus" depart="792.07" departLane="best" departSpeed="max" from="436786890" to="437457252"/>
    <trip id="bus217" type="bus_bus" depart="795.74" departLane="best" departSpeed="max" from="436786890" to="436790409"/>
    <trip id="bus218" type="bus_bus" depart="799.41" departLane="best" from="436790409" to="391847010"/>
    <trip id="bus219" type="bus_bus" depart="803.07" departLane="best" from="704095590#0" to="436799405"/>
    <trip id="bus220" type="bus_bus" depart="806.74" departLane="best" from="436790435#0" to="436790303"/>
    <trip id="bus221" type="bus_bus" depart="810.41" departLane="best" from="436790421#0" to="436790313"/>
    <trip id="bus223" type="bus_bus" depart="817.74" departLane="best" from="436790409" to="436790278"/>
    <trip id="bus224" type="bus_bus" depart="821.41" departLane="best" departSpeed="max" from="436799406" to="436790313"/>
    <trip id="bus225" type="bus_bus" depart="825.08" departLane="best" departSpeed="max" from="436790260" to="436790430"/>
    <trip id="bus227" type="bus_bus" depart="832.41" departLane="best" departSpeed="max" from="436790414" to="704095590#0"/>
    <trip id="bus229" type="bus_bus" depart="839.74" departLane="best" departSpeed="max" from="436790305" to="436790267#0"/>
    <trip id="bus231" type="bus_bus" depart="847.08" departLane="best" from="436790416" to="436790433#0"/>
    <trip id="bus234" type="bus_bus" depart="858.08" departLane="best" from="436790421#0" to="436790279"/>
    <trip id="bus235" type="bus_bus" depart="861.75" departLane="best" from="436790415-AddedOffRampEdge" to="436786895"/>
    <trip id="bus236" type="bus_bus" depart="865.41" departLane="best" departSpeed="max" from="436790305" to="437457252"/>
    <trip id="bus237" type="bus_bus" depart="869.08" departLane="best" from="436790415-AddedOffRampEdge" to="436790437"/>
    <trip id="bus238" type="bus_bus" depart="872.75" departLane="best" from="436790437" to="436799398"/>
    <trip id="bus241" type="bus_bus" depart="883.75" departLane="best" from="436799399" to="1072302867#0"/>
    <trip id="bus242" type="bus_bus" depart="887.41" departLane="best" from="-529875454" to="436790418"/>
    <trip id="bus243" type="bus_bus" depart="891.08" departLane="best" departSpeed="max" from="436799406" to="704095590#0"/>
    <trip id="bus244" type="bus_bus" depart="894.75" departLane="best" from="436790426" to="436790286"/>
    <trip id="bus247" type="bus_bus" depart="905.75" departLane="best" from="436790419" to="436799405"/>
    <trip id="bus248" type="bus_bus" depart="909.42" departLane="best" departSpeed="max" from="-391847010" to="436790431#0"/>
    <trip id="bus249" type="bus_bus" depart="913.08" departLane="best" departSpeed="max" from="436790260" to="436790278"/>
    <trip id="bus250" type="bus_bus" depart="916.75" departLane="best" from="436790410" to="436790431#0"/>
    <trip id="bus251" type="bus_bus" depart="920.42" departLane="best" from="436799399" to="436790417"/>
    <trip id="bus252" type="bus_bus" depart="924.08" departLane="best" departSpeed="max" from="-391847010" to="436790432#0"/>
    <trip id="bus253" type="bus_bus" depart="927.75" departLane="best" from="436790274" to="436790415"/>
    <trip id="bus254" type="bus_bus" depart="931.42" departLane="best" from="436790415" to="436790282"/>
    <trip id="bus255" type="bus_bus" depart="935.09" departLane="best" from="436790243" to="436790278"/>
    <trip id="bus257" type="bus_bus" depart="942.42" departLane="best" from="704095590#0" to="436790267#0"/>
    <trip id="bus258" type="bus_bus" depart="946.09" departLane="best" from="437457252" to="436790420"/>
    <trip id="bus259" type="bus_bus" depart="949.75" departLane="best" departSpeed="max" from="436790260" to="436790410"/>
    <trip id="bus260" type="bus_bus" depart="953.42" departLane="best" departSpeed="max" from="-391847010" to="436790416"/>
    <trip id="bus261" type="bus_bus" depart="957.09" departLane="best" departSpeed="max" from="436790305" to="436799405"/>
    <trip id="bus262" type="bus_bus" depart="960.75" departLane="best" departSpeed="max" from="436790260" to="436790431#0"/>
    <trip id="bus263" type="bus_bus" depart="964.42" departLane="best" departSpeed="max" from="436790414" to="436790278"/>
    <trip id="bus264" type="bus_bus" depart="968.09" departLane="best" departSpeed="max" from="436790414" to="436790417"/>
    <trip id="bus265" type="bus_bus" depart="971.76" departLane="best" from="436790417" to="436790423"/>
    <trip id="bus267" type="bus_bus" depart="979.09" departLane="best" from="436790407" to="436799405"/>
    <trip id="bus269" type="bus_bus" depart="986.42" departLane="best" from="436790269" to="436786895"/>
    <trip id="bus270" type="bus_bus" depart="990.09" departLane="best" from="437457248" to="436786895"/>
    <trip id="bus271" type="bus_bus" depart="993.76" departLane="best" from="437457248" to="436799398"/>
    <trip id="bus272" type="bus_bus" depart="997.42" departLane="best" from="436790421#0" to="529875454"/>
    <trip id="bus273" type="bus_bus" depart="1001.09" departLane="best" departSpeed="max" from="436790305" to="436790423"/>
    <trip id="bus274" type="bus_bus" depart="1004.76" departLane="best" from="436790417" to="436790415"/>
    <trip id="bus277" type="bus_bus" depart="1015.76" departLane="best" departSpeed="max" from="-391847010" to="436799405"/>
    <trip id="bus278" type="bus_bus" depart="1019.43" departLane="best" from="436790410" to="436799405"/>
    <trip id="bus279" type="bus_bus" depart="1023.09" departLane="best" from="436790248" to="391847010"/>
    <trip id="bus281" type="bus_bus" depart="1030.43" departLane="best" departSpeed="max" from="436790260" to="436790279"/>
    <trip id="bus286" type="bus_bus" depart="1048.76" departLane="best" from="437457246" to="436790282"/>
    <trip id="bus287" type="bus_bus" depart="1052.43" departLane="best" from="436790426" to="436786895"/>
    <trip id="bus288" type="bus_bus" depart="1056.10" departLane="best" from="437457246" to="1072302865#0"/>
    <trip id="bus289" type="bus_bus" depart="1059.76" departLane="best" from="437457246" to="436790437"/>
    <trip id="bus291" type="bus_bus" depart="1067.10" departLane="best" from="436790234" to="436786895"/>
    <trip id="bus293" type="bus_bus" depart="1074.43" departLane="best" from="436790416" to="436790419"/>
    <trip id="bus294" type="bus_bus" depart="1078.10" departLane="best" departSpeed="max" from="436790414" to="-529875454"/>
    <trip id="bus297" type="bus_bus" depart="1089.10" departLane="best" from="436799399" to="436790267#0"/>
    <trip id="bus298" type="bus_bus" depart="1092.77" departLane="best" departSpeed="max" from="436786890" to="436799405"/>
    <trip id="bus299" type="bus_bus" depart="1096.43" departLane="best" departSpeed="max" from="-391847010" to="436799398"/>
    <trip id="bus301" type="bus_bus" depart="1103.77" departLane="best" from="436790416" to="1072302865#0"/>
    <trip id="bus303" type="bus_bus" depart="1111.10" departLane="best" from="437457246" to="1072302867#0"/>
    <trip id="bus304" type="bus_bus" depart="1114.77" departLane="best" from="436790430" to="436799398"/>
    <trip id="bus306" type="bus_bus" depart="1122.10" departLane="best" from="437457248" to="391847010"/>
    <trip id="bus308" type="bus_bus" depart="1129.44" departLane="best" departSpeed="max" from="436799406" to="391847010"/>
    <trip id="bus309" type="bus_bus" depart="1133.10" departLane="best" from="1072302865#0" to="436790416"/>
    <trip id="bus310" type="bus_bus" depart="1136.77" departLane="best" from="-436790313" to="436790267#0"/>
    <trip id="bus311" type="bus_bus" depart="1140.44" departLane="best" departSpeed="max" from="436790414" to="436790408#0"/>
    <trip id="bus312" type="bus_bus" depart="1144.11" departLane="best" from="436790263#0" to="704095590#0"/>
    <trip id="bus313" type="bus_bus" depart="1147.77" departLane="best" departSpeed="max" from="436790414" to="436786884"/>
    <trip id="bus317" type="bus_bus" depart="1162.44" departLane="best" from="436790296" to="436790421#0"/>
    <trip id="bus318" type="bus_bus" depart="1166.11" departLane="best" departSpeed="max" from="436799406" to="391847010"/>
    <trip id="bus319" type="bus_bus" depart="1169.77" departLane="best" from="436790435#0" to="391847010"/>
    <trip id="bus321" type="bus_bus" depart="1177.11" departLane="best" departSpeed="max" from="436790414" to="436790410"/>
    <trip id="bus322" type="bus_bus" depart="1180.78" departLane="best" from="436790263#0" to="436786895"/>
    <trip id="bus328" type="bus_bus" depart="1202.78" departLane="best" from="436790415" to="1072302865#0"/>
    <trip id="bus329" type="bus_bus" depart="1206.44" departLane="best" departSpeed="max" from="436790260" to="436790231#0"/>
    <trip id="bus330" type="bus_bus" depart="1210.11" departLane="best" from="436790419" to="436790267#0"/>
    <trip id="bus331" type="bus_bus" depart="1213.78" departLane="best" from="436790269" to="-436790313"/>
    <trip id="bus332" type="bus_bus" depart="1217.45" departLane="best" from="436799399" to="436790410"/>
    <trip id="bus333" type="bus_bus" depart="1221.11" departLane="best" departSpeed="max" from="436790414" to="1072302865#0"/>
    <trip id="bus338" type="bus_bus" depart="1239.45" departLane="best" from="436790427#0" to="436786895"/>
    <trip id="bus339" type="bus_bus" depart="1243.11" departLane="best" from="436790300#0" to="436790267#0"/>
    <trip id="bus340" type="bus_bus" depart="1246.78" departLane="best" from="436790416" to="391847010"/>
    <trip id="bus341" type="bus_bus" depart="1250.45" departLane="best" from="436790287" to="436790415-AddedOffRampEdge"/>
    <trip id="bus342" type="bus_bus" depart="1254.12" departLane="best" departSpeed="max" from="-391847010" to="436790267#0"/>
    <trip id="bus343" type="bus_bus" depart="1257.78" departLane="best" from="436790244" to="436786895"/>
    <trip id="bus345" type="bus_bus" depart="1265.12" departLane="best" from="-529875454" to="436799398"/>
    <trip id="bus346" type="bus_bus" depart="1268.78" departLane="best" from="436790263#0" to="436790431#0"/>
    <trip id="bus347" type="bus_bus" depart="1272.45" departLane="best" departSpeed="max" from="436799406" to="391847010"/>
    <trip id="bus348" type="bus_bus" depart="1276.12" departLane="best" from="436790290" to="436790267#0"/>
    <trip id="bus353" type="bus_bus" depart="1294.45" departLane="best" from="436790410" to="436790418"/>
    <trip id="bus354" type="bus_bus" depart="1298.12" departLane="best" departSpeed="max" from="436790414" to="436786895"/>
    <trip id="bus356" type="bus_bus" depart="1305.45" departLane="best" from="-436790313" to="436790435#0"/>
    <trip id="bus357" type="bus_bus" depart="1309.12" departLane="best" from="-529875454" to="436799398"/>
    <trip id="bus362" type="bus_bus" depart="1327.46" departLane="best" from="436790274" to="436790423"/>
    <trip id="bus363" type="bus_bus" depart="1331.12" departLane="best" from="436790259" to="436790286"/>
    <trip id="bus364" type="bus_bus" depart="1334.79" departLane="best" from="436790300#0" to="436790406"/>
    <trip id="bus365" type="bus_bus" depart="1338.46" departLane="best" departSpeed="max" from="436790260" to="436790279"/>
    <trip id="bus366" type="bus_bus" depart="1342.12" departLane="best" from="436790417" to="436790267#0"/>
    <trip id="bus367" type="bus_bus" depart="1345.79" departLane="best" from="436790421#0" to="436790420"/>
    <trip id="bus368" type="bus_bus" depart="1349.46" departLane="best" from="436790287" to="436790415-AddedOffRampEdge"/>
    <trip id="bus369" type="bus_bus" depart="1353.12" departLane="best" from="437457243" to="436790267#0"/>
    <trip id="bus371" type="bus_bus" depart="1360.46" departLane="best" from="436790418" to="436790406"/>
    <trip id="bus372" type="bus_bus" depart="1364.13" departLane="best" from="436790415" to="436790282"/>
    <trip id="bus374" type="bus_bus" depart="1371.46" departLane="best" from="436790248" to="436786895"/>