<?xml version="1.0" encoding="UTF-8"?>

<!-- generated on 2023-01-23 01:33:41 by Eclipse SUMO polyconvert Version 1.13.0
<configuration xmlns:xsi="http://www.w3.org/2001/XMLSchema-instance" xsi:noNamespaceSchemaLocation="http://sumo.dlr.de/xsd/polyconvertConfiguration.xsd">

    <input>
        <net-file value="osm.net.xml"/>
        <osm-files value="osm_bbox.osm.xml.gz"/>
        <osm.keep-full-type value="true"/>
        <type-file value="C:\Program%20Files%20(x86)\Eclipse\Sumo\data\typemap\osmPolyconvert.typ.xml"/>
    </input>

    <output>
        <output-file value="osm.poly.xml"/>
    </output>

    <processing>
        <poi-layer-offset value="5"/>
    </processing>

    <report>
        <verbose value="true"/>
    </report>

</configuration>
-->

<additional xmlns:xsi="http://www.w3.org/2001/XMLSchema-instance" xsi:noNamespaceSchemaLocation="http://sumo.dlr.de/xsd/additional_file.xsd">
    <poly id="rsu0" type="poi" color="1,0,0" fill="1" layer="5" shape="1789.44,784.26 1789.44,784.32 1789.43,784.39 1789.42,784.45 1789.41,784.51 1789.39,784.57 1789.37,784.63 1789.34,784.69 1789.32,784.74 1789.28,784.80 1789.25,784.85 1789.21,784.90 1789.17,784.94 1789.12,784.99 1789.08,785.03 1789.03,785.07 1788.98,785.10 1788.92,785.14 1788.87,785.16 1788.81,785.19 1788.75,785.21 1788.69,785.23 1788.63,785.24 1788.57,785.25 1788.50,785.26 1788.44,785.26 1788.38,785.26 1788.31,785.25 1788.25,785.24 1788.19,785.23 1788.13,785.21 1788.07,785.19 1788.01,785.16 1787.96,785.14 1787.90,785.10 1787.85,785.07 1787.80,785.03 1787.76,784.99 1787.71,784.94 1787.67,784.90 1787.63,784.85 1787.60,784.80 1787.56,784.74 1787.54,784.69 1787.51,784.63 1787.49,784.57 1787.47,784.51 1787.46,784.45 1787.45,784.39 1787.44,784.32 1787.44,784.26 1787.44,784.20 1787.45,784.13 1787.46,784.07 1787.47,784.01 1787.49,783.95 1787.51,783.89 1787.54,783.83 1787.56,783.78 1787.60,783.72 1787.63,783.67 1787.67,783.62 1787.71,783.58 1787.76,783.53 1787.80,783.49 1787.85,783.45 1787.90,783.42 1787.96,783.38 1788.01,783.36 1788.07,783.33 1788.13,783.31 1788.19,783.29 1788.25,783.28 1788.31,783.27 1788.38,783.26 1788.44,783.26 1788.50,783.26 1788.57,783.27 1788.63,783.28 1788.69,783.29 1788.75,783.31 1788.81,783.33 1788.87,783.36 1788.92,783.38 1788.98,783.42 1789.03,783.45 1789.08,783.49 1789.12,783.53 1789.17,783.58 1789.21,783.62 1789.25,783.67 1789.28,783.72 1789.32,783.78 1789.34,783.83 1789.37,783.89 1789.39,783.95 1789.41,784.01 1789.42,784.07 1789.43,784.13 1789.44,784.20 1789.44,784.26"/>
    <poly id="rsu1" type="poi" color="1,0,0" fill="1" layer="5" shape="1787.11,609.27 1787.11,609.33 1787.10,609.40 1787.09,609.46 1787.08,609.52 1787.06,609.58 1787.04,609.64 1787.01,609.70 1786.99,609.75 1786.95,609.81 1786.92,609.86 1786.88,609.91 1786.84,609.95 1786.79,610.00 1786.75,610.04 1786.70,610.08 1786.65,610.11 1786.59,610.15 1786.54,610.17 1786.48,610.20 1786.42,610.22 1786.36,610.24 1786.30,610.25 1786.24,610.26 1786.17,610.27 1786.11,610.27 1786.05,610.27 1785.98,610.26 1785.92,610.25 1785.86,610.24 1785.80,610.22 1785.74,610.20 1785.68,610.17 1785.63,610.15 1785.57,610.11 1785.52,610.08 1785.47,610.04 1785.43,610.00 1785.38,609.95 1785.34,609.91 1785.30,609.86 1785.27,609.81 1785.23,609.75 1785.21,609.70 1785.18,609.64 1785.16,609.58 1785.14,609.52 1785.13,609.46 1785.12,609.40 1785.11,609.33 1785.11,609.27 1785.11,609.21 1785.12,609.14 1785.13,609.08 1785.14,609.02 1785.16,608.96 1785.18,608.90 1785.21,608.84 1785.23,608.79 1785.27,608.73 1785.30,608.68 1785.34,608.63 1785.38,608.59 1785.43,608.54 1785.47,608.50 1785.52,608.46 1785.57,608.43 1785.63,608.39 1785.68,608.37 1785.74,608.34 1785.80,608.32 1785.86,608.30 1785.92,608.29 1785.98,608.28 1786.05,608.27 1786.11,608.27 1786.17,608.27 1786.24,608.28 1786.30,608.29 1786.36,608.30 1786.42,608.32 1786.48,608.34 1786.54,608.37 1786.59,608.39 1786.65,608.43 1786.70,608.46 1786.75,608.50 1786.79,608.54 1786.84,608.59 1786.88,608.63 1786.92,608.68 1786.95,608.73 1786.99,608.79 1787.01,608.84 1787.04,608.90 1787.06,608.96 1787.08,609.02 1787.09,609.08 1787.10,609.14 1787.11,609.21 1787.11,609.27"/>
    <poly id="rsu2" type="poi" color="1,0,0" fill="1" layer="5" shape="1784.11,259.27 1784.11,259.33 1784.10,259.40 1784.09,259.46 1784.08,259.52 1784.06,259.58 1784.04,259.64 1784.01,259.70 1783.99,259.75 1783.95,259.81 1783.92,259.86 1783.88,259.91 1783.84,259.95 1783.79,260.00 1783.75,260.04 1783.70,260.08 1783.65,260.11 1783.59,260.15 1783.54,260.17 1783.48,260.20 1783.42,260.22 1783.36,260.24 1783.30,260.25 1783.24,260.26 1783.17,260.27 1783.11,260.27 1783.05,260.27 1782.98,260.26 1782.92,260.25 1782.86,260.24 1782.80,260.22 1782.74,260.20 1782.68,260.17 1782.63,260.15 1782.57,260.11 1782.52,260.08 1782.47,260.04 1782.43,260.00 1782.38,259.95 1782.34,259.91 1782.30,259.86 1782.27,259.81 1782.23,259.75 1782.21,259.70 1782.18,259.64 1782.16,259.58 1782.14,259.52 1782.13,259.46 1782.12,259.40 1782.11,259.33 1782.11,259.27 1782.11,259.21 1782.12,259.14 1782.13,259.08 1782.14,259.02 1782.16,258.96 1782.18,258.90 1782.21,258.84 1782.23,258.79 1782.27,258.73 1782.30,258.68 1782.34,258.63 1782.38,258.59 1782.43,258.54 1782.47,258.50 1782.52,258.46 1782.57,258.43 1782.63,258.39 1782.68,258.37 1782.74,258.34 1782.80,258.32 1782.86,258.30 1782.92,258.29 1782.98,258.28 1783.05,258.27 1783.11,258.27 1783.17,258.27 1783.24,258.28 1783.30,258.29 1783.36,258.30 1783.42,258.32 1783.48,258.34 1783.54,258.37 1783.59,258.39 1783.65,258.43 1783.70,258.46 1783.75,258.50 1783.79,258.54 1783.84,258.59 1783.88,258.63 1783.92,258.68 1783.95,258.73 1783.99,258.79 1784.01,258.84 1784.04,258.90 1784.06,258.96 1784.08,259.02 1784.09,259.08 1784.10,259.14 1784.11,259.21 1784.11,259.27"/>
    <poly id="rsu3" type="poi" color="1,0,0" fill="1" layer="5" shape="1983.90,509.65 1983.90,509.71 1983.89,509.78 1983.88,509.84 1983.87,509.90 1983.85,509.96 1983.83,510.02 1983.80,510.08 1983.78,510.13 1983.74,510.19 1983.71,510.24 1983.67,510.29 1983.63,510.33 1983.58,510.38 1983.54,510.42 1983.49,510.46 1983.44,510.49 1983.38,510.53 1983.33,510.55 1983.27,510.58 1983.21,510.60 1983.15,510.62 1983.09,510.63 1983.03,510.64 1982.96,510.65 1982.90,510.65 1982.84,510.65 1982.77,510.64 1982.71,510.63 1982.65,510.62 1982.59,510.60 1982.53,510.58 1982.47,510.55 1982.42,510.53 1982.36,510.49 1982.31,510.46 1982.26,510.42 1982.22,510.38 1982.17,510.33 1982.13,510.29 1982.09,510.24 1982.06,510.19 1982.02,510.13 1982.00,510.08 1981.97,510.02 1981.95,509.96 1981.93,509.90 1981.92,509.84 1981.91,509.78 1981.90,509.71 1981.90,509.65 1981.90,509.59 1981.91,509.52 1981.92,509.46 1981.93,509.40 1981.95,509.34 1981.97,509.28 1982.00,509.22 1982.02,509.17 1982.06,509.11 1982.09,509.06 1982.13,509.01 1982.17,508.97 1982.22,508.92 1982.26,508.88 1982.31,508.84 1982.36,508.81 1982.42,508.77 1982.47,508.75 1982.53,508.72 1982.59,508.70 1982.65,508.68 1982.71,508.67 1982.77,508.66 1982.84,508.65 1982.90,508.65 1982.96,508.65 1983.03,508.66 1983.09,508.67 1983.15,508.68 1983.21,508.70 1983.27,508.72 1983.33,508.75 1983.38,508.77 1983.44,508.81 1983.49,508.84 1983.54,508.88 1983.58,508.92 1983.63,508.97 1983.67,509.01 1983.71,509.06 1983.74,509.11 1983.78,509.17 1983.80,509.22 1983.83,509.28 1983.85,509.34 1983.87,509.40 1983.88,509.46 1983.89,509.52 1983.90,509.59 1983.90,509.65"/>
    <poly id="rsu4" type="poi" color="1,0,0" fill="1" layer="5" shape="1737.92,507.78 1737.92,507.84 1737.91,507.91 1737.90,507.97 1737.89,508.03 1737.87,508.09 1737.85,508.15 1737.82,508.21 1737.80,508.26 1737.76,508.32 1737.73,508.37 1737.69,508.42 1737.65,508.46 1737.60,508.51 1737.56,508.55 1737.51,508.59 1737.46,508.62 1737.40,508.66 1737.35,508.68 1737.29,508.71 1737.23,508.73 1737.17,508.75 1737.11,508.76 1737.05,508.77 1736.98,508.78 1736.92,508.78 1736.86,508.78 1736.79,508.77 1736.73,508.76 1736.67,508.75 1736.61,508.73 1736.55,508.71 1736.49,508.68 1736.44,508.66 1736.38,508.62 1736.33,508.59 1736.28,508.55 1736.24,508.51 1736.19,508.46 1736.15,508.42 1736.11,508.37 1736.08,508.32 1736.04,508.26 1736.02,508.21 1735.99,508.15 1735.97,508.09 1735.95,508.03 1735.94,507.97 1735.93,507.91 1735.92,507.84 1735.92,507.78 1735.92,507.72 1735.93,507.65 1735.94,507.59 1735.95,507.53 1735.97,507.47 1735.99,507.41 1736.02,507.35 1736.04,507.30 1736.08,507.24 1736.11,507.19 1736.15,507.14 1736.19,507.10 1736.24,507.05 1736.28,507.01 1736.33,506.97 1736.38,506.94 1736.44,506.90 1736.49,506.88 1736.55,506.85 1736.61,506.83 1736.67,506.81 1736.73,506.80 1736.79,506.79 1736.86,506.78 1736.92,506.78 1736.98,506.78 1737.05,506.79 1737.11,506.80 1737.17,506.81 1737.23,506.83 1737.29,506.85 1737.35,506.88 1737.40,506.90 1737.46,506.94 1737.51,506.97 1737.56,507.01 1737.60,507.05 1737.65,507.10 1737.69,507.14 1737.73,507.19 1737.76,507.24 1737.80,507.30 1737.82,507.35 1737.85,507.41 1737.87,507.47 1737.89,507.53 1737.90,507.59 1737.91,507.65 1737.92,507.72 1737.92,507.78"/>
    <poly id="rsu5" type="poi" color="1,0,0" fill="1" layer="5" shape="1462.92,507.78 1462.92,507.84 1462.91,507.91 1462.90,507.97 1462.89,508.03 1462.87,508.09 1462.85,508.15 1462.82,508.21 1462.80,508.26 1462.76,508.32 1462.73,508.37 1462.69,508.42 1462.65,508.46 1462.60,508.51 1462.56,508.55 1462.51,508.59 1462.46,508.62 1462.40,508.66 1462.35,508.68 1462.29,508.71 1462.23,508.73 1462.17,508.75 1462.11,508.76 1462.05,508.77 1461.98,508.78 1461.92,508.78 1461.86,508.78 1461.79,508.77 1461.73,508.76 1461.67,508.75 1461.61,508.73 1461.55,508.71 1461.49,508.68 1461.44,508.66 1461.38,508.62 1461.33,508.59 1461.28,508.55 1461.24,508.51 1461.19,508.46 1461.15,508.42 1461.11,508.37 1461.08,508.32 1461.04,508.26 1461.02,508.21 1460.99,508.15 1460.97,508.09 1460.95,508.03 1460.94,507.97 1460.93,507.91 1460.92,507.84 1460.92,507.78 1460.92,507.72 1460.93,507.65 1460.94,507.59 1460.95,507.53 1460.97,507.47 1460.99,507.41 1461.02,507.35 1461.04,507.30 1461.08,507.24 1461.11,507.19 1461.15,507.14 1461.19,507.10 1461.24,507.05 1461.28,507.01 1461.33,506.97 1461.38,506.94 1461.44,506.90 1461.49,506.88 1461.55,506.85 1461.61,506.83 1461.67,506.81 1461.73,506.80 1461.79,506.79 1461.86,506.78 1461.92,506.78 1461.98,506.78 1462.05,506.79 1462.11,506.80 1462.17,506.81 1462.23,506.83 1462.29,506.85 1462.35,506.88 1462.40,506.90 1462.46,506.94 1462.51,506.97 1462.56,507.01 1462.60,507.05 1462.65,507.10 1462.69,507.14 1462.73,507.19 1462.76,507.24 1462.80,507.30 1462.82,507.35 1462.85,507.41 1462.87,507.47 1462.89,507.53 1462.90,507.59 1462.91,507.65 1462.92,507.72 1462.92,507.78"/>
    <poly id="rsu6" type="poi" color="1,0,0" fill="1" layer="5" shape="1387.54,507.12 1387.54,507.18 1387.53,507.25 1387.52,507.31 1387.51,507.37 1387.49,507.43 1387.47,507.49 1387.44,507.55 1387.42,507.60 1387.38,507.66 1387.35,507.71 1387.31,507.76 1387.27,507.80 1387.22,507.85 1387.18,507.89 1387.13,507.93 1387.08,507.96 1387.02,508.00 1386.97,508.02 1386.91,508.05 1386.85,508.07 1386.79,508.09 1386.73,508.10 1386.67,508.11 1386.60,508.12 1386.54,508.12 1386.48,508.12 1386.41,508.11 1386.35,508.10 1386.29,508.09 1386.23,508.07 1386.17,508.05 1386.11,508.02 1386.06,508.00 1386.00,507.96 1385.95,507.93 1385.90,507.89 1385.86,507.85 1385.81,507.80 1385.77,507.76 1385.73,507.71 1385.70,507.66 1385.66,507.60 1385.64,507.55 1385.61,507.49 1385.59,507.43 1385.57,507.37 1385.56,507.31 1385.55,507.25 1385.54,507.18 1385.54,507.12 1385.54,507.06 1385.55,506.99 1385.56,506.93 1385.57,506.87 1385.59,506.81 1385.61,506.75 1385.64,506.69 1385.66,506.64 1385.70,506.58 1385.73,506.53 1385.77,506.48 1385.81,506.44 1385.86,506.39 1385.90,506.35 1385.95,506.31 1386.00,506.28 1386.06,506.24 1386.11,506.22 1386.17,506.19 1386.23,506.17 1386.29,506.15 1386.35,506.14 1386.41,506.13 1386.48,506.12 1386.54,506.12 1386.60,506.12 1386.67,506.13 1386.73,506.14 1386.79,506.15 1386.85,506.17 1386.91,506.19 1386.97,506.22 1387.02,506.24 1387.08,506.28 1387.13,506.31 1387.18,506.35 1387.22,506.39 1387.27,506.44 1387.31,506.48 1387.35,506.53 1387.38,506.58 1387.42,506.64 1387.44,506.69 1387.47,506.75 1387.49,506.81 1387.51,506.87 1387.52,506.93 1387.53,506.99 1387.54,507.06 1387.54,507.12"/>
    <poly id="rsu7" type="poi" color="1,0,0" fill="1" layer="5" shape="1212.54,507.12 1212.54,507.18 1212.53,507.25 1212.52,507.31 1212.51,507.37 1212.49,507.43 1212.47,507.49 1212.44,507.55 1212.42,507.60 1212.38,507.66 1212.35,507.71 1212.31,507.76 1212.27,507.80 1212.22,507.85 1212.18,507.89 1212.13,507.93 1212.08,507.96 1212.02,508.00 1211.97,508.02 1211.91,508.05 1211.85,508.07 1211.79,508.09 1211.73,508.10 1211.67,508.11 1211.60,508.12 1211.54,508.12 1211.48,508.12 1211.41,508.11 1211.35,508.10 1211.29,508.09 1211.23,508.07 1211.17,508.05 1211.11,508.02 1211.06,508.00 1211.00,507.96 1210.95,507.93 1210.90,507.89 1210.86,507.85 1210.81,507.80 1210.77,507.76 1210.73,507.71 1210.70,507.66 1210.66,507.60 1210.64,507.55 1210.61,507.49 1210.59,507.43 1210.57,507.37 1210.56,507.31 1210.55,507.25 1210.54,507.18 1210.54,507.12 1210.54,507.06 1210.55,506.99 1210.56,506.93 1210.57,506.87 1210.59,506.81 1210.61,506.75 1210.64,506.69 1210.66,506.64 1210.70,506.58 1210.73,506.53 1210.77,506.48 1210.81,506.44 1210.86,506.39 1210.90,506.35 1210.95,506.31 1211.00,506.28 1211.06,506.24 1211.11,506.22 1211.17,506.19 1211.23,506.17 1211.29,506.15 1211.35,506.14 1211.41,506.13 1211.48,506.12 1211.54,506.12 1211.60,506.12 1211.67,506.13 1211.73,506.14 1211.79,506.15 1211.85,506.17 1211.91,506.19 1211.97,506.22 1212.02,506.24 1212.08,506.28 1212.13,506.31 1212.18,506.35 1212.22,506.39 1212.27,506.44 1212.31,506.48 1212.35,506.53 1212.38,506.58 1212.42,506.64 1212.44,506.69 1212.47,506.75 1212.49,506.81 1212.51,506.87 1212.52,506.93 1212.53,506.99 1212.54,507.06 1212.54,507.12"/>
    <poly id="rsu8" type="poi" color="1,0,0" fill="1" layer="5" shape="1037.54,507.12 1037.54,507.18 1037.53,507.25 1037.52,507.31 1037.51,507.37 1037.49,507.43 1037.47,507.49 1037.44,507.55 1037.42,507.60 1037.38,507.66 1037.35,507.71 1037.31,507.76 1037.27,507.80 1037.22,507.85 1037.18,507.89 1037.13,507.93 1037.08,507.96 1037.02,508.00 1036.97,508.02 1036.91,508.05 1036.85,508.07 1036.79,508.09 1036.73,508.10 1036.67,508.11 1036.60,508.12 1036.54,508.12 1036.48,508.12 1036.41,508.11 1036.35,508.10 1036.29,508.09 1036.23,508.07 1036.17,508.05 1036.11,508.02 1036.06,508.00 1036.00,507.96 1035.95,507.93 1035.90,507.89 1035.86,507.85 1035.81,507.80 1035.77,507.76 1035.73,507.71 1035.70,507.66 1035.66,507.60 1035.64,507.55 1035.61,507.49 1035.59,507.43 1035.57,507.37 1035.56,507.31 1035.55,507.25 1035.54,507.18 1035.54,507.12 1035.54,507.06 1035.55,506.99 1035.56,506.93 1035.57,506.87 1035.59,506.81 1035.61,506.75 1035.64,506.69 1035.66,506.64 1035.70,506.58 1035.73,506.53 1035.77,506.48 1035.81,506.44 1035.86,506.39 1035.90,506.35 1035.95,506.31 1036.00,506.28 1036.06,506.24 1036.11,506.22 1036.17,506.19 1036.23,506.17 1036.29,506.15 1036.35,506.14 1036.41,506.13 1036.48,506.12 1036.54,506.12 1036.60,506.12 1036.67,506.13 1036.73,506.14 1036.79,506.15 1036.85,506.17 1036.91,506.19 1036.97,506.22 1037.02,506.24 1037.08,506.28 1037.13,506.31 1037.18,506.35 1037.22,506.39 1037.27,506.44 1037.31,506.48 1037.35,506.53 1037.38,506.58 1037.42,506.64 1037.44,506.69 1037.47,506.75 1037.49,506.81 1037.51,506.87 1037.52,506.93 1037.53,506.99 1037.54,507.06 1037.54,507.12"/>
    <poly id="rsu9" type="poi" color="1,0,0" fill="1" layer="5" shape="862.55,507.06 862.55,507.12 862.54,507.19 862.53,507.25 862.52,507.31 862.50,507.37 862.48,507.43 862.45,507.49 862.43,507.54 862.39,507.60 862.36,507.65 862.32,507.70 862.28,507.74 862.23,507.79 862.19,507.83 862.14,507.87 862.09,507.90 862.03,507.94 861.98,507.96 861.92,507.99 861.86,508.01 861.80,508.03 861.74,508.04 861.68,508.05 861.61,508.06 861.55,508.06 861.49,508.06 861.42,508.05 861.36,508.04 861.30,508.03 861.24,508.01 861.18,507.99 861.12,507.96 861.07,507.94 861.01,507.90 860.96,507.87 860.91,507.83 860.87,507.79 860.82,507.74 860.78,507.70 860.74,507.65 860.71,507.60 860.67,507.54 860.65,507.49 860.62,507.43 860.60,507.37 860.58,507.31 860.57,507.25 860.56,507.19 860.55,507.12 860.55,507.06 860.55,507.00 860.56,506.93 860.57,506.87 860.58,506.81 860.60,506.75 860.62,506.69 860.65,506.63 860.67,506.58 860.71,506.52 860.74,506.47 860.78,506.42 860.82,506.38 860.87,506.33 860.91,506.29 860.96,506.25 861.01,506.22 861.07,506.18 861.12,506.16 861.18,506.13 861.24,506.11 861.30,506.09 861.36,506.08 861.42,506.07 861.49,506.06 861.55,506.06 861.61,506.06 861.68,506.07 861.74,506.08 861.80,506.09 861.86,506.11 861.92,506.13 861.98,506.16 862.03,506.18 862.09,506.22 862.14,506.25 862.19,506.29 862.23,506.33 862.28,506.38 862.32,506.42 862.36,506.47 862.39,506.52 862.43,506.58 862.45,506.63 862.48,506.69 862.50,506.75 862.52,506.81 862.53,506.87 862.54,506.93 862.55,507.00 862.55,507.06"/>
    <poly id="rsu10" type="poi" color="1,0,0" fill="1" layer="5" shape="687.55,507.31 687.55,507.37 687.54,507.44 687.53,507.50 687.52,507.56 687.50,507.62 687.48,507.68 687.45,507.74 687.43,507.79 687.39,507.85 687.36,507.90 687.32,507.95 687.28,507.99 687.23,508.04 687.19,508.08 687.14,508.12 687.09,508.15 687.03,508.19 686.98,508.21 686.92,508.24 686.86,508.26 686.80,508.28 686.74,508.29 686.68,508.30 686.61,508.31 686.55,508.31 686.49,508.31 686.42,508.30 686.36,508.29 686.30,508.28 686.24,508.26 686.18,508.24 686.12,508.21 686.07,508.19 686.01,508.15 685.96,508.12 685.91,508.08 685.87,508.04 685.82,507.99 685.78,507.95 685.74,507.90 685.71,507.85 685.67,507.79 685.65,507.74 685.62,507.68 685.60,507.62 685.58,507.56 685.57,507.50 685.56,507.44 685.55,507.37 685.55,507.31 685.55,507.25 685.56,507.18 685.57,507.12 685.58,507.06 685.60,507.00 685.62,506.94 685.65,506.88 685.67,506.83 685.71,506.77 685.74,506.72 685.78,506.67 685.82,506.63 685.87,506.58 685.91,506.54 685.96,506.50 686.01,506.47 686.07,506.43 686.12,506.41 686.18,506.38 686.24,506.36 686.30,506.34 686.36,506.33 686.42,506.32 686.49,506.31 686.55,506.31 686.61,506.31 686.68,506.32 686.74,506.33 686.80,506.34 686.86,506.36 686.92,506.38 686.98,506.41 687.03,506.43 687.09,506.47 687.14,506.50 687.19,506.54 687.23,506.58 687.28,506.63 687.32,506.67 687.36,506.72 687.39,506.77 687.43,506.83 687.45,506.88 687.48,506.94 687.50,507.00 687.52,507.06 687.53,507.12 687.54,507.18 687.55,507.25 687.55,507.31"/>
    <poly id="rsu11" type="poi" color="1,0,0" fill="1" layer="5" shape="512.55,507.54 512.55,507.60 512.54,507.67 512.53,507.73 512.52,507.79 512.50,507.85 512.48,507.91 512.45,507.97 512.43,508.02 512.39,508.08 512.36,508.13 512.32,508.18 512.28,508.22 512.23,508.27 512.19,508.31 512.14,508.35 512.09,508.38 512.03,508.42 511.98,508.44 511.92,508.47 511.86,508.49 511.80,508.51 511.74,508.52 511.68,508.53 511.61,508.54 511.55,508.54 511.49,508.54 511.42,508.53 511.36,508.52 511.30,508.51 511.24,508.49 511.18,508.47 511.12,508.44 511.07,508.42 511.01,508.38 510.96,508.35 510.91,508.31 510.87,508.27 510.82,508.22 510.78,508.18 510.74,508.13 510.71,508.08 510.67,508.02 510.65,507.97 510.62,507.91 510.60,507.85 510.58,507.79 510.57,507.73 510.56,507.67 510.55,507.60 510.55,507.54 510.55,507.48 510.56,507.41 510.57,507.35 510.58,507.29 510.60,507.23 510.62,507.17 510.65,507.11 510.67,507.06 510.71,507.00 510.74,506.95 510.78,506.90 510.82,506.86 510.87,506.81 510.91,506.77 510.96,506.73 511.01,506.70 511.07,506.66 511.12,506.64 511.18,506.61 511.24,506.59 511.30,506.57 511.36,506.56 511.42,506.55 511.49,506.54 511.55,506.54 511.61,506.54 511.68,506.55 511.74,506.56 511.80,506.57 511.86,506.59 511.92,506.61 511.98,506.64 512.03,506.66 512.09,506.70 512.14,506.73 512.19,506.77 512.23,506.81 512.28,506.86 512.32,506.90 512.36,506.95 512.39,507.00 512.43,507.06 512.45,507.11 512.48,507.17 512.50,507.23 512.52,507.29 512.53,507.35 512.54,507.41 512.55,507.48 512.55,507.54"/>
    <poly id="rsu12" type="poi" color="1,0,0" fill="1" layer="5" shape="337.59,510.64 337.59,510.70 337.58,510.77 337.57,510.83 337.56,510.89 337.54,510.95 337.52,511.01 337.49,511.07 337.47,511.12 337.43,511.18 337.40,511.23 337.36,511.28 337.32,511.32 337.27,511.37 337.23,511.41 337.18,511.45 337.13,511.48 337.07,511.52 337.02,511.54 336.96,511.57 336.90,511.59 336.84,511.61 336.78,511.62 336.72,511.63 336.65,511.64 336.59,511.64 336.53,511.64 336.46,511.63 336.40,511.62 336.34,511.61 336.28,511.59 336.22,511.57 336.16,511.54 336.11,511.52 336.05,511.48 336.00,511.45 335.95,511.41 335.91,511.37 335.86,511.32 335.82,511.28 335.78,511.23 335.75,511.18 335.71,511.12 335.69,511.07 335.66,511.01 335.64,510.95 335.62,510.89 335.61,510.83 335.60,510.77 335.59,510.70 335.59,510.64 335.59,510.58 335.60,510.51 335.61,510.45 335.62,510.39 335.64,510.33 335.66,510.27 335.69,510.21 335.71,510.16 335.75,510.10 335.78,510.05 335.82,510.00 335.86,509.96 335.91,509.91 335.95,509.87 336.00,509.83 336.05,509.80 336.11,509.76 336.16,509.74 336.22,509.71 336.28,509.69 336.34,509.67 336.40,509.66 336.46,509.65 336.53,509.64 336.59,509.64 336.65,509.64 336.72,509.65 336.78,509.66 336.84,509.67 336.90,509.69 336.96,509.71 337.02,509.74 337.07,509.76 337.13,509.80 337.18,509.83 337.23,509.87 337.27,509.91 337.32,509.96 337.36,510.00 337.40,510.05 337.43,510.10 337.47,510.16 337.49,510.21 337.52,510.27 337.54,510.33 337.56,510.39 337.57,510.45 337.58,510.51 337.59,510.58 337.59,510.64"/>
    <poly id="rsu13" type="poi" color="1,0,0" fill="1" layer="5" shape="194.00,308.42 194.00,308.48 193.99,308.55 193.98,308.61 193.97,308.67 193.95,308.73 193.93,308.79 193.90,308.85 193.88,308.90 193.84,308.96 193.81,309.01 193.77,309.06 193.73,309.10 193.68,309.15 193.64,309.19 193.59,309.23 193.54,309.26 193.48,309.30 193.43,309.32 193.37,309.35 193.31,309.37 193.25,309.39 193.19,309.40 193.13,309.41 193.06,309.42 193.00,309.42 192.94,309.42 192.87,309.41 192.81,309.40 192.75,309.39 192.69,309.37 192.63,309.35 192.57,309.32 192.52,309.30 192.46,309.26 192.41,309.23 192.36,309.19 192.32,309.15 192.27,309.10 192.23,309.06 192.19,309.01 192.16,308.96 192.12,308.90 192.10,308.85 192.07,308.79 192.05,308.73 192.03,308.67 192.02,308.61 192.01,308.55 192.00,308.48 192.00,308.42 192.00,308.36 192.01,308.29 192.02,308.23 192.03,308.17 192.05,308.11 192.07,308.05 192.10,307.99 192.12,307.94 192.16,307.88 192.19,307.83 192.23,307.78 192.27,307.74 192.32,307.69 192.36,307.65 192.41,307.61 192.46,307.58 192.52,307.54 192.57,307.52 192.63,307.49 192.69,307.47 192.75,307.45 192.81,307.44 192.87,307.43 192.94,307.42 193.00,307.42 193.06,307.42 193.13,307.43 193.19,307.44 193.25,307.45 193.31,307.47 193.37,307.49 193.43,307.52 193.48,307.54 193.54,307.58 193.59,307.61 193.64,307.65 193.68,307.69 193.73,307.74 193.77,307.78 193.81,307.83 193.84,307.88 193.88,307.94 193.90,307.99 193.93,308.05 193.95,308.11 193.97,308.17 193.98,308.23 193.99,308.29 194.00,308.36 194.00,308.42"/>
    <poly id="rsu14" type="poi" color="1,0,0" fill="1" layer="5" shape="208.83,711.52 208.83,711.58 208.82,711.65 208.81,711.71 208.80,711.77 208.78,711.83 208.76,711.89 208.73,711.95 208.71,712.00 208.67,712.06 208.64,712.11 208.60,712.16 208.56,712.20 208.51,712.25 208.47,712.29 208.42,712.33 208.37,712.36 208.31,712.40 208.26,712.42 208.20,712.45 208.14,712.47 208.08,712.49 208.02,712.50 207.96,712.51 207.89,712.52 207.83,712.52 207.77,712.52 207.70,712.51 207.64,712.50 207.58,712.49 207.52,712.47 207.46,712.45 207.40,712.42 207.35,712.40 207.29,712.36 207.24,712.33 207.19,712.29 207.15,712.25 207.10,712.20 207.06,712.16 207.02,712.11 206.99,712.06 206.95,712.00 206.93,711.95 206.90,711.89 206.88,711.83 206.86,711.77 206.85,711.71 206.84,711.65 206.83,711.58 206.83,711.52 206.83,711.46 206.84,711.39 206.85,711.33 206.86,711.27 206.88,711.21 206.90,711.15 206.93,711.09 206.95,711.04 206.99,710.98 207.02,710.93 207.06,710.88 207.10,710.84 207.15,710.79 207.19,710.75 207.24,710.71 207.29,710.68 207.35,710.64 207.40,710.62 207.46,710.59 207.52,710.57 207.58,710.55 207.64,710.54 207.70,710.53 207.77,710.52 207.83,710.52 207.89,710.52 207.96,710.53 208.02,710.54 208.08,710.55 208.14,710.57 208.20,710.59 208.26,710.62 208.31,710.64 208.37,710.68 208.42,710.71 208.47,710.75 208.51,710.79 208.56,710.84 208.60,710.88 208.64,710.93 208.67,710.98 208.71,711.04 208.73,711.09 208.76,711.15 208.78,711.21 208.80,711.27 208.81,711.33 208.82,711.39 208.83,711.46 208.83,711.52"/>
    <poly id="rsu15" type="poi" color="1,0,0" fill="1" layer="5" shape="159.43,516.63 159.43,516.69 159.42,516.76 159.41,516.82 159.40,516.88 159.38,516.94 159.36,517.00 159.33,517.06 159.31,517.11 159.27,517.17 159.24,517.22 159.20,517.27 159.16,517.31 159.11,517.36 159.07,517.40 159.02,517.44 158.97,517.47 158.91,517.51 158.86,517.53 158.80,517.56 158.74,517.58 158.68,517.60 158.62,517.61 158.56,517.62 158.49,517.63 158.43,517.63 158.37,517.63 158.30,517.62 158.24,517.61 158.18,517.60 158.12,517.58 158.06,517.56 158.00,517.53 157.95,517.51 157.89,517.47 157.84,517.44 157.79,517.40 157.75,517.36 157.70,517.31 157.66,517.27 157.62,517.22 157.59,517.17 157.55,517.11 157.53,517.06 157.50,517.00 157.48,516.94 157.46,516.88 157.45,516.82 157.44,516.76 157.43,516.69 157.43,516.63 157.43,516.57 157.44,516.50 157.45,516.44 157.46,516.38 157.48,516.32 157.50,516.26 157.53,516.20 157.55,516.15 157.59,516.09 157.62,516.04 157.66,515.99 157.70,515.95 157.75,515.90 157.79,515.86 157.84,515.82 157.89,515.79 157.95,515.75 158.00,515.73 158.06,515.70 158.12,515.68 158.18,515.66 158.24,515.65 158.30,515.64 158.37,515.63 158.43,515.63 158.49,515.63 158.56,515.64 158.62,515.65 158.68,515.66 158.74,515.68 158.80,515.70 158.86,515.73 158.91,515.75 158.97,515.79 159.02,515.82 159.07,515.86 159.11,515.90 159.16,515.95 159.20,515.99 159.24,516.04 159.27,516.09 159.31,516.15 159.33,516.20 159.36,516.26 159.38,516.32 159.40,516.38 159.41,516.44 159.42,516.50 159.43,516.57 159.43,516.63"/>
<location netOffset="-413405.71,-3686630.83" convBoundary="-2069.53,-1354.46,4619.46,2140.95" origBoundary="-111.952646,33.303248,-111.880712,33.334564" projParameter="+proj=utm +zone=12 +ellps=WGS84 +datum=WGS84 +units=m +no_defs"/>
    <poly id="1004707145" type="leisure.swimming_pool" color="207,245,201" fill="1" layer="-2.00" shape="739.272737,710.604973 743.809673,713.115093 746.562363,708.600098 744.849638,701.241709 741.180326,702.105763 741.660459,706.924807 739.272737,710.604973"/>
    <poly id="1004720887" type="leisure.swimming_pool" color="207,245,201" fill="1" layer="-2.00" shape="736.217227,603.000549 735.590453,603.704638 735.002972,604.641228 734.957322,605.794786 735.206001,606.546573 735.686500,607.196516 736.668558,607.720055 737.861369,607.864738 739.062408,607.887379 739.882796,608.024268 740.667815,608.372142 741.369257,608.742931 742.467613,608.733217 742.847383,608.519186 743.472391,607.615528 744.083197,607.210957 744.813242,606.605748 745.189874,606.036928 745.332626,605.337120 745.140875,604.706798 744.838113,604.155075 744.425713,603.837169 743.605030,603.667019 740.413231,603.795040 739.862484,603.622502 738.937451,603.231515 738.086981,602.850956 736.895444,602.850406 736.217227,603.000549"/>
    <poly id="1005995253" type="leisure.swimming_pool" color="207,245,201" fill="1" layer="-2.00" shape="1422.243980,776.327734 1428.037112,776.687160 1428.189833,777.118252 1428.788361,777.434553 1429.245034,777.497074 1429.877031,778.445097 1429.790791,780.286463 1428.793123,781.160080 1427.917789,781.123408 1427.826655,781.345968 1421.978067,781.031381 1421.750980,780.612029 1420.966584,780.330624 1420.478292,779.847036 1420.193995,779.272955 1420.085381,778.564276 1420.293529,777.886081 1420.632766,777.295440 1421.198021,777.002192 1421.894073,776.763236 1422.243980,776.327734"/>
    <poly id="1006309985" type="leisure.swimming_pool" color="207,245,201" fill="1" layer="-2.00" shape="1063.781662,535.975826 1064.233143,536.504072 1065.148762,536.884086 1065.893415,536.877525 1066.430749,536.584502 1066.918124,535.903840 1067.079321,535.181699 1066.876914,534.396233 1066.188040,533.337853 1065.443122,532.257791 1064.009105,531.150537 1063.206551,530.924760 1062.476801,530.509845 1061.873263,529.628122 1061.395127,529.244254 1060.947944,529.203842 1060.454513,529.197102 1060.036525,529.300577 1059.759038,529.502606 1059.528483,529.748574 1059.224634,530.128243 1059.064023,530.916907 1059.113370,532.291386 1059.440105,533.452748 1060.136432,534.300390 1060.970036,534.880709 1061.547827,534.953235 1062.562222,534.922121 1063.085140,535.106010 1063.507329,535.479282 1063.781662,535.975826"/>
    <poly id="1011120131" type="leisure.swimming_pool" color="207,245,201" fill="1" layer="-2.00" shape="1024.884326,666.381015 1024.625484,665.529520 1024.684287,664.808281 1025.290702,663.904806 1025.435526,663.437833 1025.522449,662.738521 1025.386077,662.052267 1025.428708,661.608370 1025.777625,661.061982 1026.045896,660.871121 1026.836006,660.742188 1027.868808,660.688732 1028.378308,660.407040 1028.952182,660.036077 1029.374586,659.378161 1029.946994,658.840891 1030.365172,658.759589 1030.720344,658.922778 1031.197694,659.217947 1031.647216,659.524449 1032.281630,659.685178 1032.665312,659.914644 1032.873021,660.245454 1033.131472,661.052601 1033.146057,661.651225 1032.899724,662.218885 1031.680224,664.325269 1031.320435,664.694344 1030.707668,664.877154 1029.796554,665.007153 1028.933642,665.325224 1028.333408,665.873827 1027.734445,666.566564 1026.808429,667.118039 1026.287961,667.211331 1025.429861,667.019311 1024.884326,666.381015"/>
    <poly id="1064246194" type="amenity.car_wash" color="237,199,199" fill="1" layer="-1.00" shape="1856.633784,407.598113 1841.184175,407.976915 1841.111305,404.961620 1841.063248,402.655739 1856.512865,402.276936 1856.573711,404.981873 1856.633784,407.598113"/>
    <poly id="1064246194#1" type="building.yes" color="255,230,230" fill="1" layer="-1.00" shape="1856.633784,407.598113 1841.184175,407.976915 1841.111305,404.961620 1841.063248,402.655739 1856.512865,402.276936 1856.573711,404.981873 1856.633784,407.598113"/>
    <poly id="1064246195" type="building.yes" color="255,230,230" fill="1" layer="-1.00" shape="1894.451066,464.626223 1894.286561,420.164850 1906.760214,420.122556 1906.924662,464.583928 1894.451066,464.626223"/>