<?xml version="1.0" encoding="UTF-8"?>

<!-- generated on 2023-01-23 01:33:40 by Eclipse SUMO netconvert Version 1.13.0
<configuration xmlns:xsi="http://www.w3.org/2001/XMLSchema-instance" xsi:noNamespaceSchemaLocation="http://sumo.dlr.de/xsd/netconvertConfiguration.xsd">

    <input>
        <type-files value="C:\Program%20Files%20(x86)\Eclipse\Sumo\data\typemap\osmNetconvert.typ.xml"/>
        <osm-files value="osm_bbox.osm.xml.gz"/>
    </input>

    <output>
        <output-file value="osm.net.xml"/>
        <output.street-names value="true"/>
        <output.original-names value="true"/>
    </output>

    <projection>
        <proj.utm value="true"/>
    </projection>

    <processing>
        <geometry.remove value="true"/>
        <roundabouts.guess value="true"/>
    </processing>

    <tls_building>
        <tls.discard-simple value="true"/>
        <tls.join value="true"/>
        <tls.guess-signals value="true"/>
        <tls.default-type value="actuated"/>
    </tls_building>

    <ramp_guessing>
        <ramps.guess value="true"/>
    </ramp_guessing>

    <junctions>
        <junctions.join value="true"/>
        <junctions.corner-detail value="5"/>
    </junctions>

    <report>
        <verbose value="true"/>
        <aggregate-warnings value="5"/>
    </report>

</configuration>
-->

<net version="1.9" junctionCornerDetail="5" limitTurnSpeed="5.50" xmlns:xsi="http://www.w3.org/2001/XMLSchema-instance" xsi:noNamespaceSchemaLocation="http://sumo.dlr.de/xsd/net_file.xsd">

    <location netOffset="-413405.71,-3686630.83" convBoundary="0.00,0.00,2074.71,949.98" origBoundary="-111.930334,33.315466,-111.908044,33.324034" projParameter="+proj=utm +zone=12 +ellps=WGS84 +datum=WGS84 +units=m +no_defs"/>

    <type id="highway.bridleway" priority="1" numLanes="1" speed="2.78" allow="pedestrian" oneway="1" width="2.00"/>
    <type id="highway.bus_guideway" priority="1" numLanes="1" speed="27.78" allow="bus" oneway="1"/>
    <type id="highway.cycleway" priority="1" numLanes="1" speed="8.33" allow="bicycle" oneway="0" width="1.00"/>
    <type id="highway.footway" priority="1" numLanes="1" speed="2.78" allow="pedestrian" oneway="1" width="2.00"/>
    <type id="highway.ford" priority="1" numLanes="1" speed="2.78" allow="army" oneway="0"/>
    <type id="highway.living_street" priority="2" numLanes="1" speed="2.78" disallow="tram rail_urban rail rail_electric rail_fast ship" oneway="0"/>
    <type id="highway.motorway" priority="14" numLanes="2" speed="39.44" allow="private emergency authority army vip passenger hov taxi bus coach delivery truck trailer motorcycle evehicle custom1 custom2" oneway="1"/>
    <type id="highway.motorway_link" priority="9" numLanes="1" speed="22.22" allow="private emergency authority army vip passenger hov taxi bus coach delivery truck trailer motorcycle evehicle custom1 custom2" oneway="1"/>
    <type id="highway.path" priority="1" numLanes="1" speed="2.78" allow="pedestrian bicycle" oneway="0" width="2.00"/>
    <type id="highway.pedestrian" priority="1" numLanes="1" speed="2.78" allow="pedestrian" oneway="1" width="2.00"/>
    <type id="highway.primary" priority="12" numLanes="2" speed="27.78" disallow="tram rail_urban rail rail_electric rail_fast ship" oneway="0"/>
    <type id="highway.primary_link" priority="7" numLanes="1" speed="22.22" disallow="tram rail_urban rail rail_electric rail_fast ship" oneway="0"/>
    <type id="highway.raceway" priority="15" numLanes="2" speed="83.33" allow="vip" oneway="0"/>
    <type id="highway.residential" priority="3" numLanes="1" speed="13.89" disallow="tram rail_urban rail rail_electric rail_fast ship" oneway="0"/>
    <type id="highway.secondary" priority="11" numLanes="1" speed="27.78" disallow="tram rail_urban rail rail_electric rail_fast ship" oneway="0"/>
    <type id="highway.secondary_link" priority="6" numLanes="1" speed="22.22" disallow="tram rail_urban rail rail_electric rail_fast ship" oneway="0"/>
    <type id="highway.service" priority="1" numLanes="1" speed="5.56" allow="pedestrian delivery bicycle" oneway="0"/>
    <type id="highway.stairs" priority="1" numLanes="1" speed="1.39" allow="pedestrian" oneway="1" width="2.00"/>
    <type id="highway.step" priority="1" numLanes="1" speed="1.39" allow="pedestrian" oneway="1" width="2.00"/>
    <type id="highway.steps" priority="1" numLanes="1" speed="1.39" allow="pedestrian" oneway="1" width="2.00"/>
    <type id="highway.tertiary" priority="10" numLanes="1" speed="22.22" disallow="tram rail_urban rail rail_electric rail_fast ship" oneway="0"/>
    <type id="highway.tertiary_link" priority="5" numLanes="1" speed="22.22" disallow="tram rail_urban rail rail_electric rail_fast ship" oneway="0"/>
    <type id="highway.track" priority="1" numLanes="1" speed="5.56" allow="pedestrian motorcycle moped bicycle" oneway="0"/>
    <type id="highway.trunk" priority="13" numLanes="2" speed="27.78" disallow="pedestrian bicycle tram rail_urban rail rail_electric rail_fast ship" oneway="0"/>
    <type id="highway.trunk_link" priority="8" numLanes="1" speed="22.22" disallow="pedestrian bicycle tram rail_urban rail rail_electric rail_fast ship" oneway="0"/>
    <type id="highway.unclassified" priority="4" numLanes="1" speed="13.89" disallow="tram rail_urban rail rail_electric rail_fast ship" oneway="0"/>
    <type id="highway.unsurfaced" priority="1" numLanes="1" speed="8.33" disallow="tram rail_urban rail rail_electric rail_fast ship" oneway="0"/>
    <type id="railway.highspeed" priority="21" numLanes="1" speed="69.44" allow="rail_fast" oneway="1"/>
    <type id="railway.light_rail" priority="19" numLanes="1" speed="27.78" allow="rail_urban" oneway="1"/>
    <type id="railway.preserved" priority="16" numLanes="1" speed="27.78" allow="rail" oneway="1"/>
    <type id="railway.rail" priority="20" numLanes="1" speed="44.44" allow="rail" oneway="1"/>
    <type id="railway.subway" priority="18" numLanes="1" speed="27.78" allow="rail_urban" oneway="1"/>
    <type id="railway.tram" priority="17" numLanes="1" speed="13.89" allow="tram" oneway="1"/>

    <edge id=":2093037284_0" function="internal">
        <lane id=":2093037284_0_0" index="0" disallow="tram rail_urban rail rail_electric rail_fast ship" speed="27.78" length="8.21" shape="1792.08,732.07 1792.35,734.46 1792.92,736.06 1793.48,737.66 1793.76,740.05"/>
        <lane id=":2093037284_0_1" index="1" disallow="tram rail_urban rail rail_electric rail_fast ship" speed="27.78" length="8.21" shape="1788.88,732.10 1789.15,734.49 1789.72,736.09 1790.28,737.69 1790.56,740.09"/>
    </edge>
    <edge id=":2139420496_0" function="internal">
        <lane id=":2139420496_0_0" index="0" disallow="tram rail_urban rail rail_electric rail_fast ship" speed="20.12" length="8.20" shape="611.06,498.77 613.46,498.49 615.06,497.92 616.66,497.36 619.06,497.10"/>
        <lane id=":2139420496_0_1" index="1" disallow="tram rail_urban rail rail_electric rail_fast ship" speed="20.12" length="8.20" shape="611.10,501.97 613.49,501.69 615.09,501.12 616.68,500.56 619.07,500.30"/>
        <lane id=":2139420496_0_2" index="2" disallow="tram rail_urban rail rail_electric rail_fast ship" speed="20.12" length="8.20" shape="611.15,505.17 613.53,504.89 615.12,504.32 616.71,503.76 619.09,503.50"/>
    </edge>
    <edge id=":2139420503_0" function="internal">
        <lane id=":2139420503_0_0" index="0" disallow="tram rail_urban rail rail_electric rail_fast ship" speed="20.12" length="8.19" shape="1076.88,496.43 1079.28,496.16 1080.89,495.60 1082.50,495.06 1084.90,494.83"/>
        <lane id=":2139420503_0_1" index="1" disallow="tram rail_urban rail rail_electric rail_fast ship" speed="20.12" length="8.19" shape="1076.90,499.63 1079.29,499.36 1080.89,498.80 1082.49,498.26 1084.88,498.03"/>
        <lane id=":2139420503_0_2" index="2" disallow="tram rail_urban rail rail_electric rail_fast ship" speed="20.12" length="8.19" shape="1076.93,502.83 1079.30,502.56 1080.89,502.00 1082.48,501.46 1084.86,501.23"/>
    </edge>
    <edge id=":2139420522_0" function="internal">
        <lane id=":2139420522_0_0" index="0" disallow="tram rail_urban rail rail_electric rail_fast ship" speed="20.12" length="8.21" shape="1389.07,498.84 1391.45,498.61 1393.05,498.07 1394.64,497.51 1397.02,497.24"/>
        <lane id=":2139420522_0_1" index="1" disallow="tram rail_urban rail rail_electric rail_fast ship" speed="20.12" length="8.21" shape="1389.05,502.04 1391.44,501.81 1393.05,501.27 1394.65,500.71 1397.05,500.44"/>
        <lane id=":2139420522_0_2" index="2" disallow="tram rail_urban rail rail_electric rail_fast ship" speed="20.12" length="8.21" shape="1389.02,505.24 1391.44,505.01 1393.05,504.47 1394.66,503.91 1397.07,503.64"/>
    </edge>
    <edge id=":2139420545_0" function="internal">
        <lane id=":2139420545_0_0" index="0" disallow="tram rail_urban rail rail_electric rail_fast ship" speed="20.12" length="8.79" shape="1983.32,500.87 1985.79,500.39 1987.34,499.30 1988.89,498.22 1991.36,497.75"/>
        <lane id=":2139420545_0_1" index="1" disallow="tram rail_urban rail rail_electric rail_fast ship" speed="20.12" length="8.79" shape="1983.30,504.07 1985.76,503.59 1987.31,502.50 1988.86,501.42 1991.32,500.95"/>
        <lane id=":2139420545_0_2" index="2" disallow="tram rail_urban rail rail_electric rail_fast ship" speed="20.12" length="8.79" shape="1983.28,507.27 1985.74,506.79 1987.28,505.70 1988.82,504.62 1991.27,504.15"/>
    </edge>
    <edge id=":2262911874_0" function="internal">
        <lane id=":2262911874_0_0" index="0" disallow="tram rail_urban rail rail_electric rail_fast ship" speed="20.12" length="8.79" shape="191.20,349.86 190.59,347.42 189.42,345.93 188.27,344.43 187.68,341.99"/>
        <lane id=":2262911874_0_1" index="1" disallow="tram rail_urban rail rail_electric rail_fast ship" speed="20.12" length="8.79" shape="194.39,349.71 193.78,347.29 192.62,345.80 191.47,344.31 190.88,341.88"/>
    </edge>
    <edge id=":315702698_0" function="internal">
        <lane id=":315702698_0_0" index="0" disallow="tram rail_urban rail rail_electric rail_fast ship" speed="27.78" length="8.80" shape="1782.34,740.39 1781.85,737.94 1780.75,736.43 1779.62,734.91 1779.06,732.47"/>
        <lane id=":315702698_0_1" index="1" disallow="tram rail_urban rail rail_electric rail_fast ship" speed="27.78" length="8.80" shape="1785.54,740.41 1785.05,737.94 1783.95,736.40 1782.82,734.86 1782.26,732.39"/>
    </edge>
    <edge id=":315708487_0" function="internal">
        <lane id=":315708487_0_0" index="0" disallow="tram rail_urban rail rail_electric rail_fast ship" speed="20.12" length="8.21" shape="1990.88,517.34 1988.48,517.56 1986.87,518.09 1985.26,518.63 1982.86,518.85"/>
        <lane id=":315708487_0_1" index="1" disallow="tram rail_urban rail rail_electric rail_fast ship" speed="20.12" length="8.21" shape="1990.92,514.14 1988.52,514.36 1986.91,514.89 1985.30,515.43 1982.90,515.65"/>
        <lane id=":315708487_0_2" index="2" disallow="tram rail_urban rail rail_electric rail_fast ship" speed="20.12" length="8.21" shape="1990.95,510.94 1988.55,511.16 1986.94,511.69 1985.33,512.23 1982.93,512.45"/>
    </edge>
    <edge id=":390991022_0" function="internal">
        <lane id=":390991022_0_0" index="0" disallow="tram rail_urban rail rail_electric rail_fast ship" speed="20.12" length="8.65" shape="451.67,520.34 449.21,520.87 447.69,521.99 446.16,523.11 443.71,523.64"/>
        <lane id=":390991022_0_1" index="1" disallow="tram rail_urban rail rail_electric rail_fast ship" speed="20.12" length="8.65" shape="451.63,517.14 449.17,517.67 447.65,518.79 446.12,519.91 443.67,520.44"/>
        <lane id=":390991022_0_2" index="2" disallow="tram rail_urban rail rail_electric rail_fast ship" speed="20.12" length="8.65" shape="451.59,513.94 449.14,514.47 447.61,515.59 446.08,516.71 443.63,517.24"/>
        <lane id=":390991022_0_3" index="3" disallow="tram rail_urban rail rail_electric rail_fast ship" speed="20.12" length="8.65" shape="451.59,513.94 443.59,514.04"/>
        <lane id=":390991022_0_4" index="4" disallow="tram rail_urban rail rail_electric rail_fast ship" speed="20.12" length="8.65" shape="451.59,513.94 449.12,513.47 447.57,512.39 446.02,511.31 443.55,510.84"/>
    </edge>
    <edge id=":41648323_0" function="internal">
        <lane id=":41648323_0_0" index="0" disallow="tram rail_urban rail rail_electric rail_fast ship" speed="20.12" length="8.20" shape="1001.05,515.65 998.65,515.89 997.04,516.43 995.43,516.97 993.02,517.19"/>
        <lane id=":41648323_0_1" index="1" disallow="tram rail_urban rail rail_electric rail_fast ship" speed="20.12" length="8.20" shape="1001.06,512.45 998.67,512.69 997.06,513.23 995.46,513.77 993.06,513.99"/>
        <lane id=":41648323_0_2" index="2" disallow="tram rail_urban rail rail_electric rail_fast ship" speed="20.12" length="8.20" shape="1001.07,509.25 998.68,509.49 997.09,510.03 995.49,510.57 993.10,510.79"/>
    </edge>
    <edge id=":41955080_0" function="internal">
        <lane id=":41955080_0_0" index="0" disallow="tram rail_urban rail rail_electric rail_fast ship" speed="20.12" length="8.20" shape="1396.91,516.64 1394.50,516.90 1392.90,517.45 1391.29,518.00 1388.89,518.24"/>
        <lane id=":41955080_0_1" index="1" disallow="tram rail_urban rail rail_electric rail_fast ship" speed="20.12" length="8.20" shape="1396.89,513.44 1394.50,513.70 1392.90,514.25 1391.30,514.80 1388.90,515.04"/>
        <lane id=":41955080_0_2" index="2" disallow="tram rail_urban rail rail_electric rail_fast ship" speed="20.12" length="8.20" shape="1396.88,510.24 1394.49,510.50 1392.90,511.05 1391.30,511.60 1388.92,511.84"/>
    </edge>
    <edge id=":42402493_0" function="internal">
        <lane id=":42402493_0_0" index="0" disallow="tram rail_urban rail rail_electric rail_fast ship" speed="20.12" length="8.21" shape="795.34,516.06 792.94,516.33 791.35,516.89 789.75,517.45 787.35,517.72"/>
        <lane id=":42402493_0_1" index="1" disallow="tram rail_urban rail rail_electric rail_fast ship" speed="20.12" length="8.21" shape="795.32,512.86 792.92,513.13 791.32,513.69 789.72,514.25 787.33,514.52"/>
        <lane id=":42402493_0_2" index="2" disallow="tram rail_urban rail rail_electric rail_fast ship" speed="20.12" length="8.21" shape="795.30,509.66 792.90,509.93 791.30,510.49 789.70,511.05 787.30,511.32"/>
    </edge>
    <edge id=":4346554925_0" function="internal">
        <lane id=":4346554925_0_0" index="0" disallow="tram rail_urban rail rail_electric rail_fast ship" speed="20.12" length="8.21" shape="115.42,506.14 117.81,505.88 119.41,505.32 121.00,504.75 123.39,504.48"/>
        <lane id=":4346554925_0_1" index="1" disallow="tram rail_urban rail rail_electric rail_fast ship" speed="20.12" length="8.21" shape="115.44,509.34 117.83,509.08 119.43,508.52 121.03,507.95 123.42,507.68"/>
        <lane id=":4346554925_0_2" index="2" disallow="tram rail_urban rail rail_electric rail_fast ship" speed="20.12" length="8.21" shape="115.45,512.54 117.85,512.28 119.45,511.72 121.05,511.15 123.45,510.88"/>
        <lane id=":4346554925_0_3" index="3" disallow="tram rail_urban rail rail_electric rail_fast ship" speed="20.12" length="8.21" shape="115.45,512.54 117.86,512.78 119.47,513.32 121.08,513.85 123.49,514.08"/>
    </edge>
    <edge id=":4346554935_0" function="internal">
        <lane id=":4346554935_0_0" index="0" disallow="tram rail_urban rail rail_electric rail_fast ship" speed="20.12" length="8.21" shape="50.86,529.06 48.47,529.32 46.87,529.88 45.28,530.44 42.88,530.71"/>
        <lane id=":4346554935_0_1" index="1" disallow="tram rail_urban rail rail_electric rail_fast ship" speed="20.12" length="8.21" shape="50.85,525.86 48.45,526.12 46.85,526.68 45.26,527.24 42.86,527.51"/>
        <lane id=":4346554935_0_2" index="2" disallow="tram rail_urban rail rail_electric rail_fast ship" speed="20.12" length="8.21" shape="50.83,522.66 48.44,522.92 46.84,523.48 45.24,524.04 42.84,524.31"/>
        <lane id=":4346554935_0_3" index="3" disallow="tram rail_urban rail rail_electric rail_fast ship" speed="20.12" length="8.21" shape="50.82,519.46 48.42,519.72 46.82,520.28 45.22,520.84 42.82,521.11"/>
        <lane id=":4346554935_0_4" index="4" disallow="tram rail_urban rail rail_electric rail_fast ship" speed="20.12" length="8.21" shape="50.82,519.46 48.42,519.22 46.81,518.68 45.20,518.14 42.80,517.91"/>
    </edge>
    <edge id=":4346554936_0" function="internal">
        <lane id=":4346554936_0_0" index="0" disallow="tram rail_urban rail rail_electric rail_fast ship" speed="20.12" length="8.21" shape="166.45,526.78 164.05,527.04 162.46,527.60 160.86,528.16 158.47,528.43"/>
        <lane id=":4346554936_0_1" index="1" disallow="tram rail_urban rail rail_electric rail_fast ship" speed="20.12" length="8.21" shape="166.43,523.58 164.04,523.84 162.44,524.40 160.84,524.96 158.45,525.23"/>
        <lane id=":4346554936_0_2" index="2" disallow="tram rail_urban rail rail_electric rail_fast ship" speed="20.12" length="8.21" shape="166.42,520.38 164.02,520.64 162.42,521.20 160.82,521.76 158.42,522.03"/>
        <lane id=":4346554936_0_3" index="3" disallow="tram rail_urban rail rail_electric rail_fast ship" speed="20.12" length="8.21" shape="166.42,520.38 164.01,520.14 162.41,519.60 160.80,519.06 158.39,518.83"/>
    </edge>
    <edge id=":4346574954_0" function="internal">
        <lane id=":4346574954_0_0" index="0" disallow="tram rail_urban rail rail_electric rail_fast ship" speed="20.12" length="8.21" shape="182.95,204.06 182.62,201.67 182.02,200.09 181.41,198.50 181.08,196.12"/>
        <lane id=":4346574954_0_1" index="1" disallow="tram rail_urban rail rail_electric rail_fast ship" speed="20.12" length="8.21" shape="186.15,203.95 185.82,201.56 185.22,199.98 184.61,198.39 184.28,196.01"/>
        <lane id=":4346574954_0_2" index="2" disallow="tram rail_urban rail rail_electric rail_fast ship" speed="20.12" length="8.21" shape="186.15,203.95 186.32,201.54 186.81,199.92 187.31,198.30 187.48,195.90"/>
    </edge>
    <edge id=":4346574955_0" function="internal">
        <lane id=":4346574955_0_0" index="0" disallow="tram rail_urban rail rail_electric rail_fast ship" speed="20.12" length="8.60" shape="201.14,300.37 201.72,302.80 202.87,304.30 204.03,305.79 204.63,308.23"/>
        <lane id=":4346574955_0_1" index="1" disallow="tram rail_urban rail rail_electric rail_fast ship" speed="20.12" length="8.60" shape="201.14,300.37 201.43,308.35"/>
        <lane id=":4346574955_0_2" index="2" disallow="tram rail_urban rail rail_electric rail_fast ship" speed="20.12" length="8.60" shape="201.14,300.37 200.72,302.85 199.67,304.42 198.63,306.00 198.23,308.48"/>
        <lane id=":4346574955_0_3" index="3" disallow="tram rail_urban rail rail_electric rail_fast ship" speed="20.12" length="8.60" shape="197.94,300.47 197.52,302.96 196.48,304.54 195.44,306.12 195.03,308.60"/>
    </edge>
    <edge id=":4346574957_0" function="internal">
        <lane id=":4346574957_0_0" index="0" disallow="tram rail_urban rail rail_electric rail_fast ship" speed="27.78" length="8.20" shape="1789.86,330.40 1790.12,332.79 1790.69,334.37 1791.26,335.96 1791.55,338.35"/>
        <lane id=":4346574957_0_1" index="1" disallow="tram rail_urban rail rail_electric rail_fast ship" speed="27.78" length="8.20" shape="1789.86,330.40 1789.62,332.80 1789.09,334.40 1788.56,336.01 1788.36,338.40"/>
        <lane id=":4346574957_0_2" index="2" disallow="tram rail_urban rail rail_electric rail_fast ship" speed="27.78" length="8.20" shape="1786.66,330.42 1786.42,332.83 1785.89,334.44 1785.36,336.06 1785.16,338.46"/>
    </edge>
    <edge id=":4346574958_0" function="internal">
        <lane id=":4346574958_0_0" index="0" disallow="tram rail_urban rail rail_electric rail_fast ship" speed="27.78" length="8.03" shape="1788.81,363.43 1789.10,365.80 1789.65,367.38 1790.17,368.97 1790.34,371.34"/>
        <lane id=":4346574958_0_1" index="1" disallow="tram rail_urban rail rail_electric rail_fast ship" speed="27.78" length="8.03" shape="1785.61,363.48 1785.90,365.80 1786.45,367.36 1786.97,368.91 1787.14,371.23"/>
    </edge>
    <edge id=":4346574959_0" function="internal">
        <lane id=":4346574959_0_0" index="0" disallow="tram rail_urban rail rail_electric rail_fast ship" speed="20.12" length="8.21" shape="204.30,380.55 204.65,382.94 205.26,384.52 205.86,386.11 206.20,388.50"/>
        <lane id=":4346574959_0_1" index="1" disallow="tram rail_urban rail rail_electric rail_fast ship" speed="20.12" length="8.21" shape="204.30,380.55 204.15,382.96 203.66,384.58 203.17,386.20 203.00,388.61"/>
        <lane id=":4346574959_0_2" index="2" disallow="tram rail_urban rail rail_electric rail_fast ship" speed="20.12" length="8.21" shape="201.10,380.68 200.95,383.08 200.46,384.70 199.97,386.32 199.80,388.72"/>
    </edge>
    <edge id=":4346574960_0" function="internal">
        <lane id=":4346574960_0_0" index="0" disallow="tram rail_urban rail rail_electric rail_fast ship" speed="20.12" length="8.21" shape="188.31,392.97 187.95,390.58 187.33,389.01 186.71,387.43 186.36,385.05"/>
        <lane id=":4346574960_0_1" index="1" disallow="tram rail_urban rail rail_electric rail_fast ship" speed="20.12" length="8.21" shape="188.31,392.97 188.45,390.56 188.93,388.93 189.41,387.31 189.55,384.90"/>
        <lane id=":4346574960_0_2" index="2" disallow="tram rail_urban rail rail_electric rail_fast ship" speed="20.12" length="8.21" shape="191.51,392.82 191.65,390.42 192.13,388.79 192.61,387.17 192.75,384.76"/>
        <lane id=":4346574960_0_3" index="3" disallow="tram rail_urban rail rail_electric rail_fast ship" speed="20.12" length="8.21" shape="194.70,392.68 194.85,390.28 195.32,388.65 195.80,387.02 195.95,384.62"/>
    </edge>
    <edge id=":4346574961_0" function="internal">
        <lane id=":4346574961_0_0" index="0" disallow="tram rail_urban rail rail_electric rail_fast ship" speed="27.78" length="8.12" shape="1790.26,373.57 1790.44,375.92 1790.95,377.49 1791.49,379.06 1791.75,381.41"/>
        <lane id=":4346574961_0_1" index="1" disallow="tram rail_urban rail rail_electric rail_fast ship" speed="27.78" length="8.12" shape="1790.26,373.57 1789.94,375.93 1789.35,377.50 1788.79,379.07 1788.55,381.43"/>
        <lane id=":4346574961_0_2" index="2" disallow="tram rail_urban rail rail_electric rail_fast ship" speed="27.78" length="8.12" shape="1787.07,373.46 1786.74,375.86 1786.15,377.45 1785.59,379.05 1785.35,381.45"/>
    </edge>
    <edge id=":4346574962_0" function="internal">
        <lane id=":4346574962_0_0" index="0" disallow="tram rail_urban rail rail_electric rail_fast ship" speed="20.12" length="8.21" shape="190.57,409.88 190.25,407.49 189.66,405.91 189.06,404.32 188.71,401.94"/>
        <lane id=":4346574962_0_1" index="1" disallow="tram rail_urban rail rail_electric rail_fast ship" speed="20.12" length="8.21" shape="193.77,409.78 193.45,407.39 192.86,405.80 192.26,404.22 191.91,401.83"/>
        <lane id=":4346574962_0_2" index="2" disallow="tram rail_urban rail rail_electric rail_fast ship" speed="20.12" length="8.21" shape="193.77,409.78 193.95,407.37 194.45,405.75 194.95,404.13 195.11,401.73"/>
    </edge>
    <edge id=":4346574964_0" function="internal">
        <lane id=":4346574964_0_0" index="0" disallow="tram rail_urban rail rail_electric rail_fast ship" speed="20.12" length="8.21" shape="192.53,420.39 192.19,418.00 191.58,416.42 190.98,414.84 190.65,412.45"/>
        <lane id=":4346574964_0_1" index="1" disallow="tram rail_urban rail rail_electric rail_fast ship" speed="20.12" length="8.21" shape="195.73,420.28 195.39,417.89 194.78,416.31 194.18,414.73 193.85,412.34"/>
    </edge>
    <edge id=":4346574965_0" function="internal">
        <lane id=":4346574965_0_0" index="0" disallow="tram rail_urban rail rail_electric rail_fast ship" speed="20.12" length="8.40" shape="205.84,424.78 206.43,427.22 207.58,428.73 208.73,430.23 209.30,432.68"/>
        <lane id=":4346574965_0_1" index="1" disallow="tram rail_urban rail rail_electric rail_fast ship" speed="20.12" length="8.40" shape="205.84,424.78 206.10,432.78"/>
        <lane id=":4346574965_0_2" index="2" disallow="tram rail_urban rail rail_electric rail_fast ship" speed="20.12" length="8.40" shape="202.65,424.89 202.91,432.88"/>
        <lane id=":4346574965_0_3" index="3" disallow="tram rail_urban rail rail_electric rail_fast ship" speed="20.12" length="8.40" shape="202.65,424.89 202.23,427.36 201.18,428.93 200.13,430.50 199.71,432.97"/>
    </edge>
    <edge id=":4346574966_0" function="internal">
        <lane id=":4346574966_0_0" index="0" disallow="tram rail_urban rail rail_electric rail_fast ship" speed="27.78" length="8.21" shape="1788.76,418.01 1789.03,420.41 1789.59,422.01 1790.15,423.60 1790.41,426.00"/>
        <lane id=":4346574966_0_1" index="1" disallow="tram rail_urban rail rail_electric rail_fast ship" speed="27.78" length="8.21" shape="1785.56,418.03 1785.83,420.42 1786.39,422.02 1786.95,423.62 1787.21,426.02"/>
    </edge>
    <edge id=":4346574967_0" function="internal">
        <lane id=":4346574967_0_0" index="0" disallow="tram rail_urban rail rail_electric rail_fast ship" speed="20.12" length="8.21" shape="192.20,460.19 191.87,457.80 191.27,456.22 190.67,454.63 190.36,452.24"/>
        <lane id=":4346574967_0_1" index="1" disallow="tram rail_urban rail rail_electric rail_fast ship" speed="20.12" length="8.21" shape="192.20,460.19 192.37,457.79 192.87,456.17 193.37,454.55 193.55,452.15"/>
        <lane id=":4346574967_0_2" index="2" disallow="tram rail_urban rail rail_electric rail_fast ship" speed="20.12" length="8.21" shape="195.40,460.09 195.57,457.69 196.07,456.07 196.57,454.46 196.75,452.06"/>
    </edge>
    <edge id=":4346574968_0" function="internal">
        <lane id=":4346574968_0_0" index="0" disallow="tram rail_urban rail rail_electric rail_fast ship" speed="27.78" length="8.21" shape="1790.52,444.97 1790.78,447.36 1791.34,448.96 1791.90,450.56 1792.16,452.96"/>
        <lane id=":4346574968_0_1" index="1" disallow="tram rail_urban rail rail_electric rail_fast ship" speed="27.78" length="8.21" shape="1787.32,444.98 1787.58,447.38 1788.14,448.98 1788.70,450.58 1788.96,452.97"/>
        <lane id=":4346574968_0_2" index="2" disallow="tram rail_urban rail rail_electric rail_fast ship" speed="27.78" length="8.21" shape="1787.32,444.98 1787.08,447.38 1786.54,448.99 1786.00,450.59 1785.76,452.99"/>
    </edge>
    <edge id=":4346574969_0" function="internal">
        <lane id=":4346574969_0_0" index="0" disallow="tram rail_urban rail rail_electric rail_fast ship" speed="20.12" length="8.19" shape="540.72,498.23 543.09,497.96 544.67,497.40 546.24,496.82 548.62,496.52"/>
        <lane id=":4346574969_0_1" index="1" disallow="tram rail_urban rail rail_electric rail_fast ship" speed="20.12" length="8.19" shape="540.72,498.23 543.10,498.46 544.70,499.00 546.30,499.52 548.69,499.72"/>
        <lane id=":4346574969_0_2" index="2" disallow="tram rail_urban rail rail_electric rail_fast ship" speed="20.12" length="8.19" shape="540.74,501.43 543.14,501.66 544.75,502.20 546.36,502.72 548.76,502.91"/>
        <lane id=":4346574969_0_3" index="3" disallow="tram rail_urban rail rail_electric rail_fast ship" speed="20.12" length="8.19" shape="540.76,504.63 543.17,504.86 544.79,505.40 546.41,505.92 548.83,506.11"/>
    </edge>
    <edge id=":4346574970_0" function="internal">
        <lane id=":4346574970_0_0" index="0" disallow="tram rail_urban rail rail_electric rail_fast ship" speed="20.12" length="8.21" shape="1035.10,495.12 1037.49,494.86 1039.09,494.30 1040.69,493.74 1043.08,493.47"/>
        <lane id=":4346574970_0_1" index="1" disallow="tram rail_urban rail rail_electric rail_fast ship" speed="20.12" length="8.21" shape="1035.10,495.12 1037.50,495.36 1039.10,495.90 1040.71,496.44 1043.11,496.67"/>
        <lane id=":4346574970_0_2" index="2" disallow="tram rail_urban rail rail_electric rail_fast ship" speed="20.12" length="8.21" shape="1035.12,498.32 1037.52,498.56 1039.12,499.10 1040.73,499.64 1043.13,499.87"/>
        <lane id=":4346574970_0_3" index="3" disallow="tram rail_urban rail rail_electric rail_fast ship" speed="20.12" length="8.21" shape="1035.14,501.52 1037.54,501.76 1039.15,502.30 1040.75,502.84 1043.15,503.07"/>
    </edge>
    <edge id=":4346574972_0" function="internal">
        <lane id=":4346574972_0_0" index="0" disallow="tram rail_urban rail rail_electric rail_fast ship" speed="20.12" length="8.64" shape="355.31,501.06 357.76,500.49 359.28,499.35 360.79,498.21 363.25,497.66"/>
        <lane id=":4346574972_0_1" index="1" disallow="tram rail_urban rail rail_electric rail_fast ship" speed="20.12" length="8.64" shape="355.40,504.25 357.85,503.69 359.36,502.55 360.87,501.41 363.32,500.86"/>
        <lane id=":4346574972_0_2" index="2" disallow="tram rail_urban rail rail_electric rail_fast ship" speed="20.12" length="8.64" shape="355.48,507.45 357.93,506.89 359.44,505.75 360.95,504.61 363.39,504.06"/>
        <lane id=":4346574972_0_3" index="3" disallow="tram rail_urban rail rail_electric rail_fast ship" speed="20.12" length="8.64" shape="355.48,507.45 363.46,507.26"/>
        <lane id=":4346574972_0_4" index="4" disallow="tram rail_urban rail rail_electric rail_fast ship" speed="20.12" length="8.64" shape="355.48,507.45 357.95,507.89 359.51,508.95 361.07,510.01 363.54,510.45"/>
    </edge>
    <edge id=":4346574974_0" function="internal">
        <lane id=":4346574974_0_0" index="0" disallow="tram rail_urban rail rail_electric rail_fast ship" speed="20.12" length="8.20" shape="262.41,503.75 264.79,503.45 266.37,502.86 267.95,502.27 270.32,501.94"/>
        <lane id=":4346574974_0_1" index="1" disallow="tram rail_urban rail rail_electric rail_fast ship" speed="20.12" length="8.20" shape="262.41,503.75 264.81,503.95 266.42,504.46 268.03,504.97 270.42,505.14"/>
        <lane id=":4346574974_0_2" index="2" disallow="tram rail_urban rail rail_electric rail_fast ship" speed="20.12" length="8.20" shape="262.48,506.95 264.89,507.15 266.50,507.66 268.12,508.17 270.52,508.34"/>