<?xml version="1.0" encoding="UTF-8"?>

<!-- generated on 2022-11-06 21:40:12 by Eclipse SUMO polyconvert Version 1.13.0
<configuration xmlns:xsi="http://www.w3.org/2001/XMLSchema-instance" xsi:noNamespaceSchemaLocation="http://sumo.dlr.de/xsd/polyconvertConfiguration.xsd">

    <input>
        <net-file value="tenWest.net.xml"/>
        <osm-files value="osm_bbox.osm.xml.gz"/>
        <osm.keep-full-type value="true"/>
        <type-file value="C:\Program%20Files%20(x86)\Eclipse\Sumo\data\typemap\osmPolyconvert.typ.xml"/>
    </input>

    <output>
        <output-file value="osm.poly.xml"/>
    </output>

    <processing>
        <poi-layer-offset value="5"/>
    </processing>

    <report>
        <verbose value="true"/>
    </report>

</configuration>
-->

<additional xmlns:xsi="http://www.w3.org/2001/XMLSchema-instance" xsi:noNamespaceSchemaLocation="http://sumo.dlr.de/xsd/additional_file.xsd">
    <location netOffset="-392498.17,-3701501.19" convBoundary="-0.00,0.00,5490.90,3640.51" origBoundary="-112.156830,33.447705,-112.097789,33.480461" projParameter="+proj=utm +zone=12 +ellps=WGS84 +datum=WGS84 +units=m +no_defs"/>
    <poly id="poi0a" type="poi" color="1,0,0" fill="1" layer="5" shape="3154.27,1602.37 3154.27,1602.43 3154.26,1602.50 3154.25,1602.56 3154.24,1602.62 3154.22,1602.68 3154.20,1602.74 3154.17,1602.80 3154.15,1602.85 3154.11,1602.91 3154.08,1602.96 3154.04,1603.01 3154.00,1603.05 3153.95,1603.10 3153.91,1603.14 3153.86,1603.18 3153.81,1603.21 3153.75,1603.25 3153.70,1603.27 3153.64,1603.30 3153.58,1603.32 3153.52,1603.34 3153.46,1603.35 3153.40,1603.36 3153.33,1603.37 3153.27,1603.37 3153.21,1603.37 3153.14,1603.36 3153.08,1603.35 3153.02,1603.34 3152.96,1603.32 3152.90,1603.30 3152.84,1603.27 3152.79,1603.25 3152.73,1603.21 3152.68,1603.18 3152.63,1603.14 3152.59,1603.10 3152.54,1603.05 3152.50,1603.01 3152.46,1602.96 3152.43,1602.91 3152.39,1602.85 3152.37,1602.80 3152.34,1602.74 3152.32,1602.68 3152.30,1602.62 3152.29,1602.56 3152.28,1602.50 3152.27,1602.43 3152.27,1602.37 3152.27,1602.31 3152.28,1602.24 3152.29,1602.18 3152.30,1602.12 3152.32,1602.06 3152.34,1602.00 3152.37,1601.94 3152.39,1601.89 3152.43,1601.83 3152.46,1601.78 3152.50,1601.73 3152.54,1601.69 3152.59,1601.64 3152.63,1601.60 3152.68,1601.56 3152.73,1601.53 3152.79,1601.49 3152.84,1601.47 3152.90,1601.44 3152.96,1601.42 3153.02,1601.40 3153.08,1601.39 3153.14,1601.38 3153.21,1601.37 3153.27,1601.37 3153.33,1601.37 3153.40,1601.38 3153.46,1601.39 3153.52,1601.40 3153.58,1601.42 3153.64,1601.44 3153.70,1601.47 3153.75,1601.49 3153.81,1601.53 3153.86,1601.56 3153.91,1601.60 3153.95,1601.64 3154.00,1601.69 3154.04,1601.73 3154.08,1601.78 3154.11,1601.83 3154.15,1601.89 3154.17,1601.94 3154.20,1602.00 3154.22,1602.06 3154.24,1602.12 3154.25,1602.18 3154.26,1602.24 3154.27,1602.31 3154.27,1602.37"/>
    <poly id="poi0b" type="poi" color="1,0,0" fill="1" layer="5" shape="3154.27,1578.37 3154.27,1578.43 3154.26,1578.50 3154.25,1578.56 3154.24,1578.62 3154.22,1578.68 3154.20,1578.74 3154.17,1578.80 3154.15,1578.85 3154.11,1578.91 3154.08,1578.96 3154.04,1579.01 3154.00,1579.05 3153.95,1579.10 3153.91,1579.14 3153.86,1579.18 3153.81,1579.21 3153.75,1579.25 3153.70,1579.27 3153.64,1579.30 3153.58,1579.32 3153.52,1579.34 3153.46,1579.35 3153.40,1579.36 3153.33,1579.37 3153.27,1579.37 3153.21,1579.37 3153.14,1579.36 3153.08,1579.35 3153.02,1579.34 3152.96,1579.32 3152.90,1579.30 3152.84,1579.27 3152.79,1579.25 3152.73,1579.21 3152.68,1579.18 3152.63,1579.14 3152.59,1579.10 3152.54,1579.05 3152.50,1579.01 3152.46,1578.96 3152.43,1578.91 3152.39,1578.85 3152.37,1578.80 3152.34,1578.74 3152.32,1578.68 3152.30,1578.62 3152.29,1578.56 3152.28,1578.50 3152.27,1578.43 3152.27,1578.37 3152.27,1578.31 3152.28,1578.24 3152.29,1578.18 3152.30,1578.12 3152.32,1578.06 3152.34,1578.00 3152.37,1577.94 3152.39,1577.89 3152.43,1577.83 3152.46,1577.78 3152.50,1577.73 3152.54,1577.69 3152.59,1577.64 3152.63,1577.60 3152.68,1577.56 3152.73,1577.53 3152.79,1577.49 3152.84,1577.47 3152.90,1577.44 3152.96,1577.42 3153.02,1577.40 3153.08,1577.39 3153.14,1577.38 3153.21,1577.37 3153.27,1577.37 3153.33,1577.37 3153.40,1577.38 3153.46,1577.39 3153.52,1577.40 3153.58,1577.42 3153.64,1577.44 3153.70,1577.47 3153.75,1577.49 3153.81,1577.53 3153.86,1577.56 3153.91,1577.60 3153.95,1577.64 3154.00,1577.69 3154.04,1577.73 3154.08,1577.78 3154.11,1577.83 3154.15,1577.89 3154.17,1577.94 3154.20,1578.00 3154.22,1578.06 3154.24,1578.12 3154.25,1578.18 3154.26,1578.24 3154.27,1578.31 3154.27,1578.37"/>
    <poly id="poi1a" type="poi" color="1,0,0" fill="1" layer="5" shape="2979.35,1606.69 2979.35,1606.75 2979.34,1606.82 2979.33,1606.88 2979.32,1606.94 2979.30,1607.00 2979.28,1607.06 2979.25,1607.12 2979.23,1607.17 2979.19,1607.23 2979.16,1607.28 2979.12,1607.33 2979.08,1607.37 2979.03,1607.42 2978.99,1607.46 2978.94,1607.50 2978.89,1607.53 2978.83,1607.57 2978.78,1607.59 2978.72,1607.62 2978.66,1607.64 2978.60,1607.66 2978.54,1607.67 2978.48,1607.68 2978.41,1607.69 2978.35,1607.69 2978.29,1607.69 2978.22,1607.68 2978.16,1607.67 2978.10,1607.66 2978.04,1607.64 2977.98,1607.62 2977.92,1607.59 2977.87,1607.57 2977.81,1607.53 2977.76,1607.50 2977.71,1607.46 2977.67,1607.42 2977.62,1607.37 2977.58,1607.33 2977.54,1607.28 2977.51,1607.23 2977.47,1607.17 2977.45,1607.12 2977.42,1607.06 2977.40,1607.00 2977.38,1606.94 2977.37,1606.88 2977.36,1606.82 2977.35,1606.75 2977.35,1606.69 2977.35,1606.63 2977.36,1606.56 2977.37,1606.50 2977.38,1606.44 2977.40,1606.38 2977.42,1606.32 2977.45,1606.26 2977.47,1606.21 2977.51,1606.15 2977.54,1606.10 2977.58,1606.05 2977.62,1606.01 2977.67,1605.96 2977.71,1605.92 2977.76,1605.88 2977.81,1605.85 2977.87,1605.81 2977.92,1605.79 2977.98,1605.76 2978.04,1605.74 2978.10,1605.72 2978.16,1605.71 2978.22,1605.70 2978.29,1605.69 2978.35,1605.69 2978.41,1605.69 2978.48,1605.70 2978.54,1605.71 2978.60,1605.72 2978.66,1605.74 2978.72,1605.76 2978.78,1605.79 2978.83,1605.81 2978.89,1605.85 2978.94,1605.88 2978.99,1605.92 2979.03,1605.96 2979.08,1606.01 2979.12,1606.05 2979.16,1606.10 2979.19,1606.15 2979.23,1606.21 2979.25,1606.26 2979.28,1606.32 2979.30,1606.38 2979.32,1606.44 2979.33,1606.50 2979.34,1606.56 2979.35,1606.63 2979.35,1606.69"/>
    <poly id="poi1b" type="poi" color="1,0,0" fill="1" layer="5" shape="2979.35,1582.69 2979.35,1582.75 2979.34,1582.82 2979.33,1582.88 2979.32,1582.94 2979.30,1583.00 2979.28,1583.06 2979.25,1583.12 2979.23,1583.17 2979.19,1583.23 2979.16,1583.28 2979.12,1583.33 2979.08,1583.37 2979.03,1583.42 2978.99,1583.46 2978.94,1583.50 2978.89,1583.53 2978.83,1583.57 2978.78,1583.59 2978.72,1583.62 2978.66,1583.64 2978.60,1583.66 2978.54,1583.67 2978.48,1583.68 2978.41,1583.69 2978.35,1583.69 2978.29,1583.69 2978.22,1583.68 2978.16,1583.67 2978.10,1583.66 2978.04,1583.64 2977.98,1583.62 2977.92,1583.59 2977.87,1583.57 2977.81,1583.53 2977.76,1583.50 2977.71,1583.46 2977.67,1583.42 2977.62,1583.37 2977.58,1583.33 2977.54,1583.28 2977.51,1583.23 2977.47,1583.17 2977.45,1583.12 2977.42,1583.06 2977.40,1583.00 2977.38,1582.94 2977.37,1582.88 2977.36,1582.82 2977.35,1582.75 2977.35,1582.69 2977.35,1582.63 2977.36,1582.56 2977.37,1582.50 2977.38,1582.44 2977.40,1582.38 2977.42,1582.32 2977.45,1582.26 2977.47,1582.21 2977.51,1582.15 2977.54,1582.10 2977.58,1582.05 2977.62,1582.01 2977.67,1581.96 2977.71,1581.92 2977.76,1581.88 2977.81,1581.85 2977.87,1581.81 2977.92,1581.79 2977.98,1581.76 2978.04,1581.74 2978.10,1581.72 2978.16,1581.71 2978.22,1581.70 2978.29,1581.69 2978.35,1581.69 2978.41,1581.69 2978.48,1581.70 2978.54,1581.71 2978.60,1581.72 2978.66,1581.74 2978.72,1581.76 2978.78,1581.79 2978.83,1581.81 2978.89,1581.85 2978.94,1581.88 2978.99,1581.92 2979.03,1581.96 2979.08,1582.01 2979.12,1582.05 2979.16,1582.10 2979.19,1582.15 2979.23,1582.21 2979.25,1582.26 2979.28,1582.32 2979.30,1582.38 2979.32,1582.44 2979.33,1582.50 2979.34,1582.56 2979.35,1582.63 2979.35,1582.69"/>
    <poly id="poi2a" type="poi" color="1,0,0" fill="1" layer="5" shape="2804.62,1616.14 2804.62,1616.20 2804.61,1616.27 2804.60,1616.33 2804.59,1616.39 2804.57,1616.45 2804.55,1616.51 2804.52,1616.57 2804.50,1616.62 2804.46,1616.68 2804.43,1616.73 2804.39,1616.78 2804.35,1616.82 2804.30,1616.87 2804.26,1616.91 2804.21,1616.95 2804.16,1616.98 2804.10,1617.02 2804.05,1617.04 2803.99,1617.07 2803.93,1617.09 2803.87,1617.11 2803.81,1617.12 2803.75,1617.13 2803.68,1617.14 2803.62,1617.14 2803.56,1617.14 2803.49,1617.13 2803.43,1617.12 2803.37,1617.11 2803.31,1617.09 2803.25,1617.07 2803.19,1617.04 2803.14,1617.02 2803.08,1616.98 2803.03,1616.95 2802.98,1616.91 2802.94,1616.87 2802.89,1616.82 2802.85,1616.78 2802.81,1616.73 2802.78,1616.68 2802.74,1616.62 2802.72,1616.57 2802.69,1616.51 2802.67,1616.45 2802.65,1616.39 2802.64,1616.33 2802.63,1616.27 2802.62,1616.20 2802.62,1616.14 2802.62,1616.08 2802.63,1616.01 2802.64,1615.95 2802.65,1615.89 2802.67,1615.83 2802.69,1615.77 2802.72,1615.71 2802.74,1615.66 2802.78,1615.60 2802.81,1615.55 2802.85,1615.50 2802.89,1615.46 2802.94,1615.41 2802.98,1615.37 2803.03,1615.33 2803.08,1615.30 2803.14,1615.26 2803.19,1615.24 2803.25,1615.21 2803.31,1615.19 2803.37,1615.17 2803.43,1615.16 2803.49,1615.15 2803.56,1615.14 2803.62,1615.14 2803.68,1615.14 2803.75,1615.15 2803.81,1615.16 2803.87,1615.17 2803.93,1615.19 2803.99,1615.21 2804.05,1615.24 2804.10,1615.26 2804.16,1615.30 2804.21,1615.33 2804.26,1615.37 2804.30,1615.41 2804.35,1615.46 2804.39,1615.50 2804.43,1615.55 2804.46,1615.60 2804.50,1615.66 2804.52,1615.71 2804.55,1615.77 2804.57,1615.83 2804.59,1615.89 2804.60,1615.95 2804.61,1616.01 2804.62,1616.08 2804.62,1616.14"/>
    <poly id="poi2b" type="poi" color="1,0,0" fill="1" layer="5" shape="2804.62,1592.14 2804.62,1592.20 2804.61,1592.27 2804.60,1592.33 2804.59,1592.39 2804.57,1592.45 2804.55,1592.51 2804.52,1592.57 2804.50,1592.62 2804.46,1592.68 2804.43,1592.73 2804.39,1592.78 2804.35,1592.82 2804.30,1592.87 2804.26,1592.91 2804.21,1592.95 2804.16,1592.98 2804.10,1593.02 2804.05,1593.04 2803.99,1593.07 2803.93,1593.09 2803.87,1593.11 2803.81,1593.12 2803.75,1593.13 2803.68,1593.14 2803.62,1593.14 2803.56,1593.14 2803.49,1593.13 2803.43,1593.12 2803.37,1593.11 2803.31,1593.09 2803.25,1593.07 2803.19,1593.04 2803.14,1593.02 2803.08,1592.98 2803.03,1592.95 2802.98,1592.91 2802.94,1592.87 2802.89,1592.82 2802.85,1592.78 2802.81,1592.73 2802.78,1592.68 2802.74,1592.62 2802.72,1592.57 2802.69,1592.51 2802.67,1592.45 2802.65,1592.39 2802.64,1592.33 2802.63,1592.27 2802.62,1592.20 2802.62,1592.14 2802.62,1592.08 2802.63,1592.01 2802.64,1591.95 2802.65,1591.89 2802.67,1591.83 2802.69,1591.77 2802.72,1591.71 2802.74,1591.66 2802.78,1591.60 2802.81,1591.55 2802.85,1591.50 2802.89,1591.46 2802.94,1591.41 2802.98,1591.37 2803.03,1591.33 2803.08,1591.30 2803.14,1591.26 2803.19,1591.24 2803.25,1591.21 2803.31,1591.19 2803.37,1591.17 2803.43,1591.16 2803.49,1591.15 2803.56,1591.14 2803.62,1591.14 2803.68,1591.14 2803.75,1591.15 2803.81,1591.16 2803.87,1591.17 2803.93,1591.19 2803.99,1591.21 2804.05,1591.24 2804.10,1591.26 2804.16,1591.30 2804.21,1591.33 2804.26,1591.37 2804.30,1591.41 2804.35,1591.46 2804.39,1591.50 2804.43,1591.55 2804.46,1591.60 2804.50,1591.66 2804.52,1591.71 2804.55,1591.77 2804.57,1591.83 2804.59,1591.89 2804.60,1591.95 2804.61,1592.01 2804.62,1592.08 2804.62,1592.14"/>
    <poly id="poi3a" type="poi" color="1,0,0" fill="1" layer="5" shape="2631.37,1640.80 2631.37,1640.86 2631.36,1640.93 2631.35,1640.99 2631.34,1641.05 2631.32,1641.11 2631.30,1641.17 2631.27,1641.23 2631.25,1641.28 2631.21,1641.34 2631.18,1641.39 2631.14,1641.44 2631.10,1641.48 2631.05,1641.53 2631.01,1641.57 2630.96,1641.61 2630.91,1641.64 2630.85,1641.68 2630.80,1641.70 2630.74,1641.73 2630.68,1641.75 2630.62,1641.77 2630.56,1641.78 2630.50,1641.79 2630.43,1641.80 2630.37,1641.80 2630.31,1641.80 2630.24,1641.79 2630.18,1641.78 2630.12,1641.77 2630.06,1641.75 2630.00,1641.73 2629.94,1641.70 2629.89,1641.68 2629.83,1641.64 2629.78,1641.61 2629.73,1641.57 2629.69,1641.53 2629.64,1641.48 2629.60,1641.44 2629.56,1641.39 2629.53,1641.34 2629.49,1641.28 2629.47,1641.23 2629.44,1641.17 2629.42,1641.11 2629.40,1641.05 2629.39,1640.99 2629.38,1640.93 2629.37,1640.86 2629.37,1640.80 2629.37,1640.74 2629.38,1640.67 2629.39,1640.61 2629.40,1640.55 2629.42,1640.49 2629.44,1640.43 2629.47,1640.37 2629.49,1640.32 2629.53,1640.26 2629.56,1640.21 2629.60,1640.16 2629.64,1640.12 2629.69,1640.07 2629.73,1640.03 2629.78,1639.99 2629.83,1639.96 2629.89,1639.92 2629.94,1639.90 2630.00,1639.87 2630.06,1639.85 2630.12,1639.83 2630.18,1639.82 2630.24,1639.81 2630.31,1639.80 2630.37,1639.80 2630.43,1639.80 2630.50,1639.81 2630.56,1639.82 2630.62,1639.83 2630.68,1639.85 2630.74,1639.87 2630.80,1639.90 2630.85,1639.92 2630.91,1639.96 2630.96,1639.99 2631.01,1640.03 2631.05,1640.07 2631.10,1640.12 2631.14,1640.16 2631.18,1640.21 2631.21,1640.26 2631.25,1640.32 2631.27,1640.37 2631.30,1640.43 2631.32,1640.49 2631.34,1640.55 2631.35,1640.61 2631.36,1640.67 2631.37,1640.74 2631.37,1640.80"/>
    <poly id="poi3b" type="poi" color="1,0,0" fill="1" layer="5" shape="2631.37,1616.80 2631.37,1616.86 2631.36,1616.93 2631.35,1616.99 2631.34,1617.05 2631.32,1617.11 2631.30,1617.17 2631.27,1617.23 2631.25,1617.28 2631.21,1617.34 2631.18,1617.39 2631.14,1617.44 2631.10,1617.48 2631.05,1617.53 2631.01,1617.57 2630.96,1617.61 2630.91,1617.64 2630.85,1617.68 2630.80,1617.70 2630.74,1617.73 2630.68,1617.75 2630.62,1617.77 2630.56,1617.78 2630.50,1617.79 2630.43,1617.80 2630.37,1617.80 2630.31,1617.80 2630.24,1617.79 2630.18,1617.78 2630.12,1617.77 2630.06,1617.75 2630.00,1617.73 2629.94,1617.70 2629.89,1617.68 2629.83,1617.64 2629.78,1617.61 2629.73,1617.57 2629.69,1617.53 2629.64,1617.48 2629.60,1617.44 2629.56,1617.39 2629.53,1617.34 2629.49,1617.28 2629.47,1617.23 2629.44,1617.17 2629.42,1617.11 2629.40,1617.05 2629.39,1616.99 2629.38,1616.93 2629.37,1616.86 2629.37,1616.80 2629.37,1616.74 2629.38,1616.67 2629.39,1616.61 2629.40,1616.55 2629.42,1616.49 2629.44,1616.43 2629.47,1616.37 2629.49,1616.32 2629.53,1616.26 2629.56,1616.21 2629.60,1616.16 2629.64,1616.12 2629.69,1616.07 2629.73,1616.03 2629.78,1615.99 2629.83,1615.96 2629.89,1615.92 2629.94,1615.90 2630.00,1615.87 2630.06,1615.85 2630.12,1615.83 2630.18,1615.82 2630.24,1615.81 2630.31,1615.80 2630.37,1615.80 2630.43,1615.80 2630.50,1615.81 2630.56,1615.82 2630.62,1615.83 2630.68,1615.85 2630.74,1615.87 2630.80,1615.90 2630.85,1615.92 2630.91,1615.96 2630.96,1615.99 2631.01,1616.03 2631.05,1616.07 2631.10,1616.12 2631.14,1616.16 2631.18,1616.21 2631.21,1616.26 2631.25,1616.32 2631.27,1616.37 2631.30,1616.43 2631.32,1616.49 2631.34,1616.55 2631.35,1616.61 2631.36,1616.67 2631.37,1616.74 2631.37,1616.80"/>
    <poly id="poi4a" type="poi" color="1,0,0" fill="1" layer="5" shape="2459.86,1672.44 2459.86,1672.50 2459.85,1672.57 2459.84,1672.63 2459.83,1672.69 2459.81,1672.75 2459.79,1672.81 2459.76,1672.87 2459.74,1672.92 2459.70,1672.98 2459.67,1673.03 2459.63,1673.08 2459.59,1673.12 2459.54,1673.17 2459.50,1673.21 2459.45,1673.25 2459.40,1673.28 2459.34,1673.32 2459.29,1673.34 2459.23,1673.37 2459.17,1673.39 2459.11,1673.41 2459.05,1673.42 2458.99,1673.43 2458.92,1673.44 2458.86,1673.44 2458.80,1673.44 2458.73,1673.43 2458.67,1673.42 2458.61,1673.41 2458.55,1673.39 2458.49,1673.37 2458.43,1673.34 2458.38,1673.32 2458.32,1673.28 2458.27,1673.25 2458.22,1673.21 2458.18,1673.17 2458.13,1673.12 2458.09,1673.08 2458.05,1673.03 2458.02,1672.98 2457.98,1672.92 2457.96,1672.87 2457.93,1672.81 2457.91,1672.75 2457.89,1672.69 2457.88,1672.63 2457.87,1672.57 2457.86,1672.50 2457.86,1672.44 2457.86,1672.38 2457.87,1672.31 2457.88,1672.25 2457.89,1672.19 2457.91,1672.13 2457.93,1672.07 2457.96,1672.01 2457.98,1671.96 2458.02,1671.90 2458.05,1671.85 2458.09,1671.80 2458.13,1671.76 2458.18,1671.71 2458.22,1671.67 2458.27,1671.63 2458.32,1671.60 2458.38,1671.56 2458.43,1671.54 2458.49,1671.51 2458.55,1671.49 2458.61,1671.47 2458.67,1671.46 2458.73,1671.45 2458.80,1671.44 2458.86,1671.44 2458.92,1671.44 2458.99,1671.45 2459.05,1671.46 2459.11,1671.47 2459.17,1671.49 2459.23,1671.51 2459.29,1671.54 2459.34,1671.56 2459.40,1671.60 2459.45,1671.63 2459.50,1671.67 2459.54,1671.71 2459.59,1671.76 2459.63,1671.80 2459.67,1671.85 2459.70,1671.90 2459.74,1671.96 2459.76,1672.01 2459.79,1672.07 2459.81,1672.13 2459.83,1672.19 2459.84,1672.25 2459.85,1672.31 2459.86,1672.38 2459.86,1672.44"/>
    <poly id="poi4b" type="poi" color="1,0,0" fill="1" layer="5" shape="2459.86,1648.44 2459.86,1648.50 2459.85,1648.57 2459.84,1648.63 2459.83,1648.69 2459.81,1648.75 2459.79,1648.81 2459.76,1648.87 2459.74,1648.92 2459.70,1648.98 2459.67,1649.03 2459.63,1649.08 2459.59,1649.12 2459.54,1649.17 2459.50,1649.21 2459.45,1649.25 2459.40,1649.28 2459.34,1649.32 2459.29,1649.34 2459.23,1649.37 2459.17,1649.39 2459.11,1649.41 2459.05,1649.42 2458.99,1649.43 2458.92,1649.44 2458.86,1649.44 2458.80,1649.44 2458.73,1649.43 2458.67,1649.42 2458.61,1649.41 2458.55,1649.39 2458.49,1649.37 2458.43,1649.34 2458.38,1649.32 2458.32,1649.28 2458.27,1649.25 2458.22,1649.21 2458.18,1649.17 2458.13,1649.12 2458.09,1649.08 2458.05,1649.03 2458.02,1648.98 2457.98,1648.92 2457.96,1648.87 2457.93,1648.81 2457.91,1648.75 2457.89,1648.69 2457.88,1648.63 2457.87,1648.57 2457.86,1648.50 2457.86,1648.44 2457.86,1648.38 2457.87,1648.31 2457.88,1648.25 2457.89,1648.19 2457.91,1648.13 2457.93,1648.07 2457.96,1648.01 2457.98,1647.96 2458.02,1647.90 2458.05,1647.85 2458.09,1647.80 2458.13,1647.76 2458.18,1647.71 2458.22,1647.67 2458.27,1647.63 2458.32,1647.60 2458.38,1647.56 2458.43,1647.54 2458.49,1647.51 2458.55,1647.49 2458.61,1647.47 2458.67,1647.46 2458.73,1647.45 2458.80,1647.44 2458.86,1647.44 2458.92,1647.44 2458.99,1647.45 2459.05,1647.46 2459.11,1647.47 2459.17,1647.49 2459.23,1647.51 2459.29,1647.54 2459.34,1647.56 2459.40,1647.60 2459.45,1647.63 2459.50,1647.67 2459.54,1647.71 2459.59,1647.76 2459.63,1647.80 2459.67,1647.85 2459.70,1647.90 2459.74,1647.96 2459.76,1648.01 2459.79,1648.07 2459.81,1648.13 2459.83,1648.19 2459.84,1648.25 2459.85,1648.31 2459.86,1648.38 2459.86,1648.44"/>
    <poly id="poi5a" type="poi" color="1,0,0" fill="1" layer="5" shape="2287.35,1700.79 2287.35,1700.85 2287.34,1700.92 2287.33,1700.98 2287.32,1701.04 2287.30,1701.10 2287.28,1701.16 2287.25,1701.22 2287.23,1701.27 2287.19,1701.33 2287.16,1701.38 2287.12,1701.43 2287.08,1701.47 2287.03,1701.52 2286.99,1701.56 2286.94,1701.60 2286.89,1701.63 2286.83,1701.67 2286.78,1701.69 2286.72,1701.72 2286.66,1701.74 2286.60,1701.76 2286.54,1701.77 2286.48,1701.78 2286.41,1701.79 2286.35,1701.79 2286.29,1701.79 2286.22,1701.78 2286.16,1701.77 2286.10,1701.76 2286.04,1701.74 2285.98,1701.72 2285.92,1701.69 2285.87,1701.67 2285.81,1701.63 2285.76,1701.60 2285.71,1701.56 2285.67,1701.52 2285.62,1701.47 2285.58,1701.43 2285.54,1701.38 2285.51,1701.33 2285.47,1701.27 2285.45,1701.22 2285.42,1701.16 2285.40,1701.10 2285.38,1701.04 2285.37,1700.98 2285.36,1700.92 2285.35,1700.85 2285.35,1700.79 2285.35,1700.73 2285.36,1700.66 2285.37,1700.60 2285.38,1700.54 2285.40,1700.48 2285.42,1700.42 2285.45,1700.36 2285.47,1700.31 2285.51,1700.25 2285.54,1700.20 2285.58,1700.15 2285.62,1700.11 2285.67,1700.06 2285.71,1700.02 2285.76,1699.98 2285.81,1699.95 2285.87,1699.91 2285.92,1699.89 2285.98,1699.86 2286.04,1699.84 2286.10,1699.82 2286.16,1699.81 2286.22,1699.80 2286.29,1699.79 2286.35,1699.79 2286.41,1699.79 2286.48,1699.80 2286.54,1699.81 2286.60,1699.82 2286.66,1699.84 2286.72,1699.86 2286.78,1699.89 2286.83,1699.91 2286.89,1699.95 2286.94,1699.98 2286.99,1700.02 2287.03,1700.06 2287.08,1700.11 2287.12,1700.15 2287.16,1700.20 2287.19,1700.25 2287.23,1700.31 2287.25,1700.36 2287.28,1700.42 2287.30,1700.48 2287.32,1700.54 2287.33,1700.60 2287.34,1700.66 2287.35,1700.73 2287.35,1700.79"/>
    <poly id="poi5b" type="poi" color="1,0,0" fill="1" layer="5" shape="2287.35,1676.79 2287.35,1676.85 2287.34,1676.92 2287.33,1676.98 2287.32,1677.04 2287.30,1677.10 2287.28,1677.16 2287.25,1677.22 2287.23,1677.27 2287.19,1677.33 2287.16,1677.38 2287.12,1677.43 2287.08,1677.47 2287.03,1677.52 2286.99,1677.56 2286.94,1677.60 2286.89,1677.63 2286.83,1677.67 2286.78,1677.69 2286.72,1677.72 2286.66,1677.74 2286.60,1677.76 2286.54,1677.77 2286.48,1677.78 2286.41,1677.79 2286.35,1677.79 2286.29,1677.79 2286.22,1677.78 2286.16,1677.77 2286.10,1677.76 2286.04,1677.74 2285.98,1677.72 2285.92,1677.69 2285.87,1677.67 2285.81,1677.63 2285.76,1677.60 2285.71,1677.56 2285.67,1677.52 2285.62,1677.47 2285.58,1677.43 2285.54,1677.38 2285.51,1677.33 2285.47,1677.27 2285.45,1677.22 2285.42,1677.16 2285.40,1677.10 2285.38,1677.04 2285.37,1676.98 2285.36,1676.92 2285.35,1676.85 2285.35,1676.79 2285.35,1676.73 2285.36,1676.66 2285.37,1676.60 2285.38,1676.54 2285.40,1676.48 2285.42,1676.42 2285.45,1676.36 2285.47,1676.31 2285.51,1676.25 2285.54,1676.20 2285.58,1676.15 2285.62,1676.11 2285.67,1676.06 2285.71,1676.02 2285.76,1675.98 2285.81,1675.95 2285.87,1675.91 2285.92,1675.89 2285.98,1675.86 2286.04,1675.84 2286.10,1675.82 2286.16,1675.81 2286.22,1675.80 2286.29,1675.79 2286.35,1675.79 2286.41,1675.79 2286.48,1675.80 2286.54,1675.81 2286.60,1675.82 2286.66,1675.84 2286.72,1675.86 2286.78,1675.89 2286.83,1675.91 2286.89,1675.95 2286.94,1675.98 2286.99,1676.02 2287.03,1676.06 2287.08,1676.11 2287.12,1676.15 2287.16,1676.20 2287.19,1676.25 2287.23,1676.31 2287.25,1676.36 2287.28,1676.42 2287.30,1676.48 2287.32,1676.54 2287.33,1676.60 2287.34,1676.66 2287.35,1676.73 2287.35,1676.79"/>
    <poly id="poi6a" type="poi" color="1,0,0" fill="1" layer="5" shape="2112.69,1708.56 2112.69,1708.62 2112.68,1708.69 2112.67,1708.75 2112.66,1708.81 2112.64,1708.87 2112.62,1708.93 2112.59,1708.99 2112.57,1709.04 2112.53,1709.10 2112.50,1709.15 2112.46,1709.20 2112.42,1709.24 2112.37,1709.29 2112.33,1709.33 2112.28,1709.37 2112.23,1709.40 2112.17,1709.44 2112.12,1709.46 2112.06,1709.49 2112.00,1709.51 2111.94,1709.53 2111.88,1709.54 2111.82,1709.55 2111.75,1709.56 2111.69,1709.56 2111.63,1709.56 2111.56,1709.55 2111.50,1709.54 2111.44,1709.53 2111.38,1709.51 2111.32,1709.49 2111.26,1709.46 2111.21,1709.44 2111.15,1709.40 2111.10,1709.37 2111.05,1709.33 2111.01,1709.29 2110.96,1709.24 2110.92,1709.20 2110.88,1709.15 2110.85,1709.10 2110.81,1709.04 2110.79,1708.99 2110.76,1708.93 2110.74,1708.87 2110.72,1708.81 2110.71,1708.75 2110.70,1708.69 2110.69,1708.62 2110.69,1708.56 2110.69,1708.50 2110.70,1708.43 2110.71,1708.37 2110.72,1708.31 2110.74,1708.25 2110.76,1708.19 2110.79,1708.13 2110.81,1708.08 2110.85,1708.02 2110.88,1707.97 2110.92,1707.92 2110.96,1707.88 2111.01,1707.83 2111.05,1707.79 2111.10,1707.75 2111.15,1707.72 2111.21,1707.68 2111.26,1707.66 2111.32,1707.63 2111.38,1707.61 2111.44,1707.59 2111.50,1707.58 2111.56,1707.57 2111.63,1707.56 2111.69,1707.56 2111.75,1707.56 2111.82,1707.57 2111.88,1707.58 2111.94,1707.59 2112.00,1707.61 2112.06,1707.63 2112.12,1707.66 2112.17,1707.68 2112.23,1707.72 2112.28,1707.75 2112.33,1707.79 2112.37,1707.83 2112.42,1707.88 2112.46,1707.92 2112.50,1707.97 2112.53,1708.02 2112.57,1708.08 2112.59,1708.13 2112.62,1708.19 2112.64,1708.25 2112.66,1708.31 2112.67,1708.37 2112.68,1708.43 2112.69,1708.50 2112.69,1708.56"/>
    <poly id="poi6b" type="poi" color="1,0,0" fill="1" layer="5" shape="2112.69,1684.56 2112.69,1684.62 2112.68,1684.69 2112.67,1684.75 2112.66,1684.81 2112.64,1684.87 2112.62,1684.93 2112.59,1684.99 2112.57,1685.04 2112.53,1685.10 2112.50,1685.15 2112.46,1685.20 2112.42,1685.24 2112.37,1685.29 2112.33,1685.33 2112.28,1685.37 2112.23,1685.40 2112.17,1685.44 2112.12,1685.46 2112.06,1685.49 2112.00,1685.51 2111.94,1685.53 2111.88,1685.54 2111.82,1685.55 2111.75,1685.56 2111.69,1685.56 2111.63,1685.56 2111.56,1685.55 2111.50,1685.54 2111.44,1685.53 2111.38,1685.51 2111.32,1685.49 2111.26,1685.46 2111.21,1685.44 2111.15,1685.40 2111.10,1685.37 2111.05,1685.33 2111.01,1685.29 2110.96,1685.24 2110.92,1685.20 2110.88,1685.15 2110.85,1685.10 2110.81,1685.04 2110.79,1684.99 2110.76,1684.93 2110.74,1684.87 2110.72,1684.81 2110.71,1684.75 2110.70,1684.69 2110.69,1684.62 2110.69,1684.56 2110.69,1684.50 2110.70,1684.43 2110.71,1684.37 2110.72,1684.31 2110.74,1684.25 2110.76,1684.19 2110.79,1684.13 2110.81,1684.08 2110.85,1684.02 2110.88,1683.97 2110.92,1683.92 2110.96,1683.88 2111.01,1683.83 2111.05,1683.79 2111.10,1683.75 2111.15,1683.72 2111.21,1683.68 2111.26,1683.66 2111.32,1683.63 2111.38,1683.61 2111.44,1683.59 2111.50,1683.58 2111.56,1683.57 2111.63,1683.56 2111.69,1683.56 2111.75,1683.56 2111.82,1683.57 2111.88,1683.58 2111.94,1683.59 2112.00,1683.61 2112.06,1683.63 2112.12,1683.66 2112.17,1683.68 2112.23,1683.72 2112.28,1683.75 2112.33,1683.79 2112.37,1683.83 2112.42,1683.88 2112.46,1683.92 2112.50,1683.97 2112.53,1684.02 2112.57,1684.08 2112.59,1684.13 2112.62,1684.19 2112.64,1684.25 2112.66,1684.31 2112.67,1684.37 2112.68,1684.43 2112.69,1684.50 2112.69,1684.56"/>
    <poly id="poi7a" type="poi" color="1,0,0" fill="1" layer="5" shape="1938.15,1698.04 1938.15,1698.10 1938.14,1698.17 1938.13,1698.23 1938.12,1698.29 1938.10,1698.35 1938.08,1698.41 1938.05,1698.47 1938.03,1698.52 1937.99,1698.58 1937.96,1698.63 1937.92,1698.68 1937.88,1698.72 1937.83,1698.77 1937.79,1698.81 1937.74,1698.85 1937.69,1698.88 1937.63,1698.92 1937.58,1698.94 1937.52,1698.97 1937.46,1698.99 1937.40,1699.01 1937.34,1699.02 1937.28,1699.03 1937.21,1699.04 1937.15,1699.04 1937.09,1699.04 1937.02,1699.03 1936.96,1699.02 1936.90,1699.01 1936.84,1698.99 1936.78,1698.97 1936.72,1698.94 1936.67,1698.92 1936.61,1698.88 1936.56,1698.85 1936.51,1698.81 1936.47,1698.77 1936.42,1698.72 1936.38,1698.68 1936.34,1698.63 1936.31,1698.58 1936.27,1698.52 1936.25,1698.47 1936.22,1698.41 1936.20,1698.35 1936.18,1698.29 1936.17,1698.23 1936.16,1698.17 1936.15,1698.10 1936.15,1698.04 1936.15,1697.98 1936.16,1697.91 1936.17,1697.85 1936.18,1697.79 1936.20,1697.73 1936.22,1697.67 1936.25,1697.61 1936.27,1697.56 1936.31,1697.50 1936.34,1697.45 1936.38,1697.40 1936.42,1697.36 1936.47,1697.31 1936.51,1697.27 1936.56,1697.23 1936.61,1697.20 1936.67,1697.16 1936.72,1697.14 1936.78,1697.11 1936.84,1697.09 1936.90,1697.07 1936.96,1697.06 1937.02,1697.05 1937.09,1697.04 1937.15,1697.04 1937.21,1697.04 1937.28,1697.05 1937.34,1697.06 1937.40,1697.07 1937.46,1697.09 1937.52,1697.11 1937.58,1697.14 1937.63,1697.16 1937.69,1697.20 1937.74,1697.23 1937.79,1697.27 1937.83,1697.31 1937.88,1697.36 1937.92,1697.40 1937.96,1697.45 1937.99,1697.50 1938.03,1697.56 1938.05,1697.61 1938.08,1697.67 1938.10,1697.73 1938.12,1697.79 1938.13,1697.85 1938.14,1697.91 1938.15,1697.98 1938.15,1698.04"/>
    <poly id="poi7b" type="poi" color="1,0,0" fill="1" layer="5" shape="1938.15,1674.04 1938.15,1674.10 1938.14,1674.17 1938.13,1674.23 1938.12,1674.29 1938.10,1674.35 1938.08,1674.41 1938.05,1674.47 1938.03,1674.52 1937.99,1674.58 1937.96,1674.63 1937.92,1674.68 1937.88,1674.72 1937.83,1674.77 1937.79,1674.81 1937.74,1674.85 1937.69,1674.88 1937.63,1674.92 1937.58,1674.94 1937.52,1674.97 1937.46,1674.99 1937.40,1675.01 1937.34,1675.02 1937.28,1675.03 1937.21,1675.04 1937.15,1675.04 1937.09,1675.04 1937.02,1675.03 1936.96,1675.02 1936.90,1675.01 1936.84,1674.99 1936.78,1674.97 1936.72,1674.94 1936.67,1674.92 1936.61,1674.88 1936.56,1674.85 1936.51,1674.81 1936.47,1674.77 1936.42,1674.72 1936.38,1674.68 1936.34,1674.63 1936.31,1674.58 1936.27,1674.52 1936.25,1674.47 1936.22,1674.41 1936.20,1674.35 1936.18,1674.29 1936.17,1674.23 1936.16,1674.17 1936.15,1674.10 1936.15,1674.04 1936.15,1673.98 1936.16,1673.91 1936.17,1673.85 1936.18,1673.79 1936.20,1673.73 1936.22,1673.67 1936.25,1673.61 1936.27,1673.56 1936.31,1673.50 1936.34,1673.45 1936.38,1673.40 1936.42,1673.36 1936.47,1673.31 1936.51,1673.27 1936.56,1673.23 1936.61,1673.20 1936.67,1673.16 1936.72,1673.14 1936.78,1673.11 1936.84,1673.09 1936.90,1673.07 1936.96,1673.06 1937.02,1673.05 1937.09,1673.04 1937.15,1673.04 1937.21,1673.04 1937.28,1673.05 1937.34,1673.06 1937.40,1673.07 1937.46,1673.09 1937.52,1673.11 1937.58,1673.14 1937.63,1673.16 1937.69,1673.20 1937.74,1673.23 1937.79,1673.27 1937.83,1673.31 1937.88,1673.36 1937.92,1673.40 1937.96,1673.45 1937.99,1673.50 1938.03,1673.56 1938.05,1673.61 1938.08,1673.67 1938.10,1673.73 1938.12,1673.79 1938.13,1673.85 1938.14,1673.91 1938.15,1673.98 1938.15,1674.04"/>
    <poly id="poi8a" type="poi" color="1,0,0" fill="1" layer="5" shape="1766.06,1666.59 1766.06,1666.65 1766.05,1666.72 1766.04,1666.78 1766.03,1666.84 1766.01,1666.90 1765.99,1666.96 1765.96,1667.02 1765.94,1667.07 1765.90,1667.13 1765.87,1667.18 1765.83,1667.23 1765.79,1667.27 1765.74,1667.32 1765.70,1667.36 1765.65,1667.40 1765.60,1667.43 1765.54,1667.47 1765.49,1667.49 1765.43,1667.52 1765.37,1667.54 1765.31,1667.56 1765.25,1667.57 1765.19,1667.58 1765.12,1667.59 1765.06,1667.59 1765.00,1667.59 1764.93,1667.58 1764.87,1667.57 1764.81,1667.56 1764.75,1667.54 1764.69,1667.52 1764.63,1667.49 1764.58,1667.47 1764.52,1667.43 1764.47,1667.40 1764.42,1667.36 1764.38,1667.32 1764.33,1667.27 1764.29,1667.23 1764.25,1667.18 1764.22,1667.13 1764.18,1667.07 1764.16,1667.02 1764.13,1666.96 1764.11,1666.90 1764.09,1666.84 1764.08,1666.78 1764.07,1666.72 1764.06,1666.65 1764.06,1666.59 1764.06,1666.53 1764.07,1666.46 1764.08,1666.40 1764.09,1666.34 1764.11,1666.28 1764.13,1666.22 1764.16,1666.16 1764.18,1666.11 1764.22,1666.05 1764.25,1666.00 1764.29,1665.95 1764.33,1665.91 1764.38,1665.86 1764.42,1665.82 1764.47,1665.78 1764.52,1665.75 1764.58,1665.71 1764.63,1665.69 1764.69,1665.66 1764.75,1665.64 1764.81,1665.62 1764.87,1665.61 1764.93,1665.60 1765.00,1665.59 1765.06,1665.59 1765.12,1665.59 1765.19,1665.60 1765.25,1665.61 1765.31,1665.62 1765.37,1665.64 1765.43,1665.66 1765.49,1665.69 1765.54,1665.71 1765.60,1665.75 1765.65,1665.78 1765.70,1665.82 1765.74,1665.86 1765.79,1665.91 1765.83,1665.95 1765.87,1666.00 1765.90,1666.05 1765.94,1666.11 1765.96,1666.16 1765.99,1666.22 1766.01,1666.28 1766.03,1666.34 1766.04,1666.40 1766.05,1666.46 1766.06,1666.53 1766.06,1666.59"/>